64
Lattice="7.527393 0.0 0.0 0.0 7.527393 0.0 0.0 0.0 22.527393" Properties=species:S:1:pos:R:3:force:R:3 energy=-433.88730771 config_type=Amorphous_Surfaces kpoints="5 5 1" kpoints_density="5.99123926 5.99123926 3.58602245" virial="51.46392398 -17.37543622 -15.79836696 -17.37543622 7.65281169 -5.28051628 -15.79836696 -5.28051628 -12.25556897" cutoff=-1.0 nneightol=1.2 pbc="T T T"
C        3.47971054       7.06907262       1.39340937       2.20203701       1.94199441      -1.91276971
C        4.35705831       6.90303339       2.80837745      -1.07938040       3.01915023      -1.22902405
C        2.16562344       0.25274727       1.27930812      -1.71897297      -2.77805550      -0.14982213
C        6.56200485       5.95198492      19.26188969      -0.84380321      -2.67900769       0.32025789
C        5.82477950       1.72389344      22.25548737      -1.50078464      -0.73153276       1.88175163
C        3.85267029       0.22410554       3.83193208       1.61845953      -3.28868206      -0.34988136
C        2.04681859       3.57911730       3.23114903      -2.04326040      -0.88018544      -1.89644535
C        4.04310580       7.28785630      22.31743770       2.88024614      -1.41947062       0.62470237
C        4.19160621       3.82869554       3.98964636      -2.55691744       1.25157627       0.59188400
C        5.25686781       5.34845360      21.35574329       2.51902411       0.84737458      -1.88739254
C        6.28533552       3.20530696      20.33230130       0.22903625       1.36998373       0.91352442
C        2.92488899       6.17378708      19.20739593       3.39179994       2.91027072      -4.58799292
C        6.59041323       1.89237907      21.07160528      -1.17545333       5.03852591      -1.95343611
C        1.79017213       0.39475907      21.98772677      -0.25642314       0.07527456       0.38703241
C        2.25446926       1.54633729       1.92748880      -0.25601141       2.13319848       0.85626703
C        0.97819978       5.52049970      20.29355418       0.78838339       0.02579272       0.08405715
C        0.06576683       4.96244136      19.25013039      -1.40294332       3.13878834      -0.34145899
C        7.27444249       1.23224176       2.39774813      -0.52167901       1.83049219      -2.60421934
C        3.55378762       1.92397154      22.50177935      -2.45895743       0.29968786      -1.87163683
C        5.43172162       6.18408455       2.29353641       0.61217156      -0.19824094       1.53122608
C        0.13178207       1.34047815      20.48857382       0.88639618      -0.40242167       2.32394448
C        6.58448164       4.57048248      21.46045061      -0.42249475      -1.63207737       0.62966450
C        1.68180025       1.07368476       4.00530289      -3.32886405      -2.56592991       1.87446988
C        0.42124797       0.56796438       3.52765458       0.54451426       1.31764596      -0.14949738
C        4.59874784       2.59686778       1.87738788       1.99478569       1.30755137       0.36449447
C        2.60504253       5.39798385      22.45604875       0.45329399      -1.04471254       1.27150662
C        0.48289732       3.70499789       1.26973398      -0.31431442      -1.72854303       1.42406745
C        2.76743851       6.66210412      21.67087899      -1.07702010       1.91305794       0.54777875
C        2.40412136       5.82642048      20.40342028      -0.81926292      -1.28770252      -0.14356608
C        1.36911988       6.55888851       1.71329835      -3.41492825       2.04903883       0.07886476
C        4.22734627       4.24254408      21.11537601       3.36623232       0.30855572      -0.98743229
C        7.48462235       6.01040502       0.90278527      -0.13939126       1.06006718       1.65690912
C        6.85186970       6.25409684       2.27265352       0.44686582      -0.98815079       1.14547750
C        2.98335425       4.20772236       3.99726061       2.76882580      -0.01617483       1.12279702
C        1.49905773       4.21607024       2.00680775       0.82059749      -2.04347645       1.11656271
C        3.52450606       5.60948101       1.07115501      -1.64682542      -0.74625814       1.58066448
C        3.69874263       7.06314104      18.66894618      -3.49458304      -2.71774109      -0.36588567
C        4.76243100       3.33242957      20.24081756       0.50466218      -1.21222414      -0.93076352
C        2.14923630       2.89636770      20.71051370      -0.71325611      -1.03219177       2.15323314
C        7.08112398       2.73103604       1.97274633      -2.17913393       0.30531908       0.25266417
C        4.96730406       5.55989055       1.14331025       0.43651434      -1.29722629      -0.97278115
C        0.91943342       2.66401213      19.98177506      -0.90839883      -0.53164252      -1.04926354
C        6.85065026       7.15712807       0.14714893      -0.60212311      -0.49905535      -0.40676581
C        0.04269537       4.62770572       0.23761894      -1.92791493       1.95575721      -1.65414512
C        4.33516865       1.03954050      20.22664783       1.55579187       1.01225023      -0.54537768
C        4.69158318       7.39448182      19.56265292      -0.75785204       0.53377539       0.79456141
C        6.46843183       3.32394620       3.36935459       2.10727734      -0.15177817      -2.04203556
C        5.42690409       6.24922661      20.01115078       4.60084588      -1.33539588      -1.81403747
C        5.29909649       6.39842707      22.41369725       0.36419746      -1.64038845       0.37399434
C        4.49273204       1.01311182      21.72321012       1.47220223       3.46819261       1.94116879
C        1.98580155       2.14581134       3.18237723      -0.15582333       1.87181134      -2.48332804
C        5.77184688       2.41030888       1.05189409       0.79535902      -0.08490878      -0.15586463
C        2.40050821       1.77970905      21.69196463      -0.84521445       1.91213486      -1.07529665
C        6.64302218       0.62068624       1.26006973       0.58728022       1.03226086      -0.04049845
C        0.39212448       0.33463778      21.50169827       2.07598622      -1.28889658       1.26416457
C        4.14127053       2.26284725      19.50369873       0.63917342      -0.04105230       1.74047005
C        0.36606465       5.11524744      21.37707673      -2.09589941      -1.86422515       1.78499351
C        2.87233273       4.38222991      21.16495880      -3.30608490       0.07780676       1.06265383
C        5.15185315       3.35717964       3.12448183      -1.23228404      -1.74945719      -0.05218373
C        2.10228043       5.37824702       1.45666629       2.29607793      -2.36607978      -0.49572434
C        2.70562356       0.17436453       4.36972853      -0.28377051       1.68673379       0.50895307
C        3.35315249       2.15360972       1.34267768       3.80454741       1.18297507      -1.77900460
C        0.43211752       6.83131991       2.89810405      -1.04952335      -3.26345182      -0.86279744
C        7.47081711       3.51083631      19.28097039      -0.23303514      -1.37070667       2.58556694
