216
Lattice="11.29109 0.0 0.0 0.0 11.29109 0.0 0.0 0.0 31.29109" Properties=species:S:1:pos:R:3:force:R:3 energy=-1480.40145269 config_type=Amorphous_Surfaces kpoints="3 3 1" kpoints_density="5.39211557 5.39211557 4.98107131" virial="8.91799488 -42.86947368 -11.07947587 -42.86947368 -2.8013284 -1.6063564 -11.07947587 -1.6063564 46.70910733" cutoff=-1.0 nneightol=1.2 pbc="T T T"
C        4.98580661       4.00904829       0.31018858      -1.64568307       1.16913025       2.74576641
C        0.95021297       3.54915090      25.81683897      -2.50670648       2.52794679       0.33260716
C        7.95871674       3.20736961       1.76175095       3.03430668      -2.14447957       2.48826784
C        0.15270070       2.76263615       2.30577784      -2.51656685       0.37449692       0.55774888
C        9.33182619       3.09939291      28.72259217      -3.29811339      -1.37751401       1.33325313
C        1.08085088       6.97577090      30.07558761       0.88563553       2.74659598       2.75161452
C        9.71117294       0.91474766       2.73728197      -5.06889599      -1.10094372       0.91189834
C        9.24617198       3.23066313       0.95478503       2.03545147       2.43742014       0.18602097
C        8.14578751       2.17126532      28.44350694      -2.20184284       1.42537566      -0.21654618
C       10.20148852       6.03859913      29.44350759      -3.24439616       1.18989664      -3.46029682
C        6.31319844       6.69079507      26.28376461      -3.34205200      -0.72757240      -0.01229679
C        3.98537087       7.82753685      26.45436364       2.44074975       0.01368198       0.18193685
C       10.34600318       9.49512922       1.09318552      -1.22316765       0.75914503       0.55366017
C        4.73996571       8.83493919       5.17423206      -1.78676284      -2.47212169      -1.27476669
C        6.17351637       9.28357936      28.74853248      -0.47673895       1.62365031      -1.78718135
C        8.62486846       0.33968115      27.08074868       0.23657127       1.30333806      -2.53895694
C        1.43007300       5.67999412       2.63993539      -1.60907624       0.18099810      -0.29546363
C        0.19011937       3.88994987       4.62053622      -1.55601087       2.17473168       1.33118560
C        0.26027092       2.78816531       3.82674385       2.34715559      -2.68583082       0.17446072
C        1.59105007       3.21110696       1.82786902       1.99887434      -1.48117911      -0.94634659
C       11.07878363       4.40625754      25.85441957       3.67582724      -0.76477432       1.08973531
C        8.16386455       5.82541206      27.40098169       1.63851379       1.66708490       2.44981827
C        2.55195571       2.25890676       2.55012996      -3.97825494       2.22440544      -1.63658932
C        9.34833376       7.50602306       0.10867396       3.44548167       0.62135233       1.21391461
C        5.93105150       8.11214007       4.60964692       1.14066690       4.36342561      -0.66700791
C        9.88377983       8.01593998       5.10417131       0.60573461       4.68549589      -0.78007890
C        8.54552597       6.72238754      26.24343040      -1.41752650       0.30884596      -2.47831832
C        8.50225852       8.72977398      28.94676154       1.63700553       1.74052373       0.14234289
C        7.02173692       1.07382782      28.86384015      -0.13949949       2.48033493      -0.27660776
C        2.83369098       4.01872475       3.67710986       0.28212840       1.74783672       0.75291280
C        0.18177526       7.60264092       1.16080557       0.04054328       2.15082338       0.19774112
C       10.46719045       9.36752862       4.86172794      -1.00019056      -0.42670020       1.81245454
C        9.78554735      10.27726303       5.71009198       0.31059962       0.32545398      -2.14046532
C        0.01667694       0.76161789       0.68267771       1.00788226       2.29696292       2.93453632
C        9.15516580       1.90181474       3.69873200       1.35943938      -0.64490529       1.36501062
C        1.66531157       2.77720166      26.69793348       1.65011066      -2.16412958      -2.03773456
C        7.77886096       4.59389288       2.15188826      -1.32261247       2.73592680      -1.40475059
C        4.97337512       3.01701312       2.62876447      -5.36571140       5.68846776      -0.08315322
C        6.16998226       9.14298271      25.84534515      -1.55098503      -0.77061946       1.89538263
C        0.28853251       1.87306763      29.75388391      -1.16589148      -3.03051661       1.40869811
C        3.11804579       2.64149405      26.86940865      -0.70540727       3.24623763      -2.77770427
C        4.80267642       9.30279680       0.78171401       2.03099440       0.14006400       0.74011706
C        0.67123272       8.44690959      30.73029109       0.69350933       0.61008641       1.02550490
C        4.39146622       3.07955447       1.21569014       2.61517647       1.26906513      -3.17022250
C        0.60342972       0.57883773       3.15595676      -0.18773582       0.86727810      -1.43979653
C        6.21603861       5.81169339      31.21289357       2.94361077       2.51360068      -0.63697178
C        1.95970416      10.42123572       4.71200008       0.66207769       3.43924377       4.04313856
C        3.87266321       0.72154582       0.82661672       0.87583103      -0.09929802       0.10687084
C        0.63591419       5.82121178      27.91080742      -3.91423187       3.52371712      -1.89948587
C        0.76914905       7.17094868       4.65245313      -0.73550595      -1.48908778       0.78742290
C        8.72349613       7.74692976       4.34201423       0.11947636       2.39801530       0.74118874
C        5.45029947       6.78954695       2.67169585      -1.69353381      -1.51278814       2.28168809
C        4.77878448       5.49637841       2.23168054       0.71618526       3.68017133      -0.69921117
C       10.96421294       1.22185401       2.21209232       2.85775679       0.33906474      -5.47258167
C        3.37282924       6.86125666      28.69912385      -0.60011760      -2.60122071      -0.07449158
C        1.65796107       1.08889014      29.91556497       0.47045123      -0.15520594      -1.63513057
C        0.92845504       0.11302381      26.83767949      -0.39195621      -1.72101295       0.25315833
C        3.63445509       7.81749907      30.65081172      -2.70350144       1.32195031      -2.58634421
C        0.93968967       5.77429730       0.02065212       1.79703143      -2.49737360      -0.99157114
C        8.17022143       2.74200733       3.30737434       2.61579982      -1.20799691      -0.79961722
C        7.47032064       9.69363788      28.15875802      -0.94705175      -2.05521778       0.12841968
C       10.99186482       9.35925225       3.51107934       0.89478110       0.22378200       2.18721893
C       10.28420705       4.75398924       2.80571558      -0.22115023      -0.02157813      -2.54891029
C        2.84407879      11.11070355      27.95283135      -0.02162600      -2.09573325       0.14884588
C        3.60409335       2.80698756       3.35675168       0.95929193       1.92863539       1.45617583
C       10.29071072       3.08550487      27.73911321       0.98520338      -0.92384831      -2.21972843
C        2.06170787      10.53394338      26.90395402      -1.35057449       0.04124687       2.35951393
C        6.16402056       1.31841541       1.76788400       3.87735332       3.59227489       0.17781007
C        4.16832040      10.08137391      29.97702068      -1.99478059       0.05182648      -1.52894429
C        5.83214155       2.01223031       3.12901513       1.62220090      -0.78695563      -0.62666830
C        7.55831210       9.24940123      26.60346568      -1.39294293       1.05953619       0.91303480
C        8.91454138       4.20988291      30.78733474      -0.79322567       0.88130742       0.91090132
C        2.57366847       2.35138078      30.78861768       1.31393720       0.78920954      -1.11128805
C        1.24180537      11.21883832       0.67216390      -1.68504303      -1.22914836      -2.43645356
C        0.03683154       6.92483679      28.94228691       2.54238276      -1.38288883       0.46044955
C        9.75418070       5.85403498       4.87712316       0.64463176      -1.97688997      -0.49582356
C        1.80540013       3.26508966       0.39104475      -0.84037817       0.22205393      -2.43211889
C        6.31110959       7.44848367       1.67923634       1.90194381       2.89554042       0.95721741
C       10.25749233       4.63918144       4.21018487       0.57323564       1.58751168       2.86297964
C        2.52402155       8.46209611       1.66265207       1.24339956      -4.97711969       0.32454126
C        5.61325248      10.14123927      29.61323046      -2.06280699       1.54391241       0.90226609
C        2.81022810       3.22790810      29.43728066       0.09635752       0.26654204      -0.23913409
C        2.74026851       0.98443626       4.29132266      -1.21255694      -4.57649849       3.74421701
C        8.04528552       7.56961448      31.04999215      -3.20321879      -0.47625624       0.98026966
C        2.05493322       5.78407538       1.12885736       1.63417961       2.90085819       2.57853510
C        9.13154484      11.17823556      29.11639054      -0.46753789      -1.36710225      -0.90041096
C        7.41041011       3.45580746      30.45805860       1.17066666      -1.32479586      -1.00945314
C        6.55816993       1.11694850      30.31033337       2.05748475      -1.64641086      -0.34030176
C        6.50373559      10.54736848       3.87045750       1.52414491      -2.19761556       0.15595647
C        6.00384516       0.46865927      26.17271254      -1.05873451      -2.72988607      -1.27214772
C        6.96490887       6.75829321      27.66645530       2.37299944      -2.17388885       0.78356130
C        8.08079600       1.88013585      26.93978232      -2.14682938       2.10246547      -1.50565593
C       11.14649630       6.18408483       0.92881342       0.84889205      -1.41331478       0.48245363
C        9.22844497      10.28086489       0.52525224       2.30469145       2.68593113      -4.06250969
C        1.48713817      10.98245935      30.49398077      -0.09683801      -0.52785216      -0.64684577
C        9.41438664       9.32027540      25.89935357       3.76742808       3.06743639       0.98709850
C        6.52565159       9.11454045       3.76716562      -0.15533692      -1.84350610      -1.47552343
C        9.70252397       6.09408355       0.64303190      -2.19467662       3.09151555       1.13818105
C        8.52278572       3.39604372      26.11131942       2.07560572      -0.61866757       1.67445095
C        3.71736556       9.32393372       1.81763684      -1.03218371       3.64115276      -0.05156271
C        5.31155456      11.04594915       4.25834186       2.63384599       3.80587019       0.79569524
C       10.08945833       1.59020324       4.99086627      -0.53491460      -3.41139881       0.03920642
C        1.30457254       8.73040628       0.94383315      -3.00772174      -1.61046621      -1.48672983
C        6.50446951       7.00570357      29.14423961       2.38388781       0.81804838      -2.68198719
C        8.66267103       8.16226121      26.63441257       2.06305947      -0.50034252      -2.29593913
C        1.43528949       3.92313438      29.21448810       0.54384868       0.24242937       0.83353644
C        2.38266839       4.94765402       4.84486205      -2.26273393      -1.63352888      -1.65684381
C        9.44284019       2.23807470      31.19186595       0.26072172      -2.75409538      -3.92380628
C        7.16391433       8.66571963       2.42959668       0.35784963       0.34666712       1.00450239
C        6.16963223       3.59272322      28.29693947       3.46221396       2.00186610       0.66851615
C        3.03428849      10.49239217       2.34558011       0.32256890      -3.37636597       0.03835090
C        3.03967434       5.45019785      28.64370733       0.47671701      -1.21095073       0.65340819
C        5.24284828       7.95891997       0.88272165       0.81709007      -1.74904728      -0.57743520
C        4.51280027       4.86655012      25.95308037      -3.41835779       0.29053383       0.12176317
C        8.48418148      10.35186326      26.09094892       0.41487160      -0.52031587       1.07925256
C        5.46769904       5.50437250      26.65362530      -1.21121399      -1.63644011      -1.36405254
C        9.88693005       3.25186779      30.06113113      -2.20940484       2.13395210      -0.11210131
C        0.25532542       1.35025629       4.50253752      -0.09195477       2.16702903      -0.98886880
C        4.29199171       7.52668576      27.91002514       3.07532088       1.83089511       0.28415533
C       10.59677829       8.38806043       0.17807759       0.04121641      -2.47629387      -0.33971430
C        6.28831288       4.19098162      26.90792799       0.46591378       1.34239733      -0.51924455
C        3.24744169       2.26702505      28.29121320       2.26917456      -1.40617166       2.46827882
C        9.92193243       8.63934364       2.48535741       0.98027855       2.22278791       0.83316931
C       10.03514819       0.38703598      27.94735541      -0.60871989       1.60292142       0.26319517
C        6.35121554       1.78985230      26.57908992      -1.34547532       0.32672711       1.90533503
C        9.29690285       6.32257005      28.28676987      -1.10358355       0.21531123       1.57370604
C        5.84573603       1.88280055      28.14220503       3.12480848       0.07656517      -1.69812247
C        7.89704480      11.07473013       3.99502733      -1.50606591      -0.37232632      -5.44270396
C        2.08050753       8.87952771      28.84030925       2.50348117       2.15227487       1.54963076
C        5.75917853       3.46454676      30.50921953      -0.72046263       2.00721270       0.36068162
C       10.83356374       9.65017847      26.30038018      -2.60599404      -1.82574608      -0.80879949
C        1.59578104       5.10042247      28.50164578       4.28761673      -1.56394025       0.05640811
C        8.59249691       8.45125666       3.11937747      -1.54959688      -1.01188995      -1.91158121
C        2.60803855       0.31073080       1.48563837       0.95376421      -1.89098864       1.50118667
C        9.58308682      11.00854176      30.51050247      -0.55368186      -1.20315211      -0.16524662
C        4.04622985       7.68846450       4.77680393       0.39597784       1.95401417       3.15950438
C       10.51675834       1.15458170      30.80589036       0.88855545      -0.76954989       3.61789820
C        0.59628246      10.42676835       2.91826964       0.30436962      -4.19807024      -1.07828613
C        5.08666992       1.16579375       4.10185511       0.58573699       0.28145780      -0.34047957
C       11.01262914      10.67354641      27.41719048       0.70835963      -0.80601977       0.38462548
C        0.25417373       8.36349102      26.81098819       2.32515089       4.03691169       1.41853264
C        3.83777374       4.37239556      29.21480101      -1.22452415       3.23525331      -0.37409914
C        5.60822795       8.02147261      28.47623742      -5.04749028      -1.22988834       0.77243159
C        1.50306990       0.62726521       5.08999645      -0.89083473      -0.30757705      -0.10193310
C        5.74933270      10.53073671      26.00076800       0.38529642       1.55409506      -0.56839237
C        7.67570556       1.99063046      31.00052094      -0.35360463       0.45530871       2.49656346
C        3.10646114       7.29283599       3.83412855      -3.10338558      -0.29439634      -1.80188647
C       11.04592656       1.68981324      28.39450509       0.20809522       0.28745484      -6.99275273
C        6.75894809       4.61425071       3.37217819       1.34309149      -0.76220194      -0.99476403
C        5.98730371      10.42945563       0.71062065      -2.39397462      -1.25972358      -0.56717006
C        8.28686968      10.52853495       1.44639934       4.25294113       4.00689183       3.74265912
C        6.95032078       3.12186218       3.87139624      -0.39002922      -0.18100056       3.70066897
C        4.40004744      10.31668022       4.93426069      -0.54331935      -2.57225178       1.28267754
C        3.87654735       9.16616332      31.02264374       0.64591817      -0.03070349      -3.62231884
C        2.25645659       1.14042267      28.41462526       0.37705560      -0.29037359       0.36743194
C        1.22910289       4.34154831       5.47647270       0.88453202       0.23573797      -1.41687208
C        2.14362473       4.44407140       2.45369082      -1.61469689       0.48842255       0.54158268
C        0.40731478       7.17537478      26.15262366      -0.69814748      -4.42688673      -2.37451918
C        1.79530589       8.86156358      27.19937320      -0.48378474       2.08627043       0.49709428
C       11.22937290       5.84946209       2.39436292      -1.70028128       0.98634984      -0.61790964
C        8.79728341      11.01148874       2.75477369       0.40645833       3.11408058       0.26069893
C        2.10238967       8.38920083       3.12557311      -1.09694998       0.73775307       0.13169252
C        1.07995889       1.51902421      27.36931511      -0.63055984      -0.61234877       3.28212438
C        5.12061093       2.07156499      30.36634442       0.50665684      -0.31675648      -2.62266685
C        6.34099711       5.72654728      29.81299278      -4.12047158      -1.84022096       2.00348890
C        3.23872496      11.03121427       5.10633039      -1.84758277      -4.00515693      -0.92757155
C        4.98307417       5.46930238       0.60961302      -0.13406627      -1.67593124       0.44421187
C        3.98500956       2.02186161       0.19638288      -0.62488662      -0.76010111      -0.91949518
C        8.61433388      10.90242810       5.09741243       2.30762306       0.95362959       5.37332501
C        7.14138860       9.94536144       1.47074381      -6.13195249      -3.39914039       0.87331982
C       10.99898950       9.65101401      28.76652486       1.76972411      -1.40824752       0.15808698
C        4.23966880       6.90123841       0.26128060      -0.22602527       0.90613957       3.41150557
C        7.44742231       6.03093248      25.57348816       2.14690375      -0.10278973      -0.98549274
C       10.75542940       7.00635846       5.20824548      -0.23371830      -4.58796622       0.13662361
C        0.22329260       3.39501623      29.81909454      -1.59588111      -1.11107710       3.28218325
C        3.06317110       6.90329339       1.29276009       0.76324963       0.45513839       2.54473593
C        5.44308447       4.42248284      29.37685757      -1.34158054      -0.83333105      -1.49672799
C        9.66931687       9.81088456      29.35004111      -0.55787744       1.45715280       2.00287015
C        2.03005894       1.00892664       2.83012264       1.84043176       0.39718054       1.37155817
C        6.65742990       3.00144271       5.31513584       0.17018870       0.13048666      -1.67537171
C        0.52473083      10.02077463       1.41992708       0.83767264       0.17704524      -0.71910929
C        0.63539480       8.03879315       3.52309511       1.45752536       2.41010175      -0.97550450
C        4.68606205       1.88755410      28.87582464      -3.34047149      -1.00006314       0.96376828
C        5.41062258       7.88933299      25.80623129       1.45684991       2.26104461       0.93866196
C        9.49173061       5.69347568      30.64999815       0.17560744      -5.11488701      -3.94431376
C       10.87416650       8.25576273      28.14805646      -0.35759488      -1.13754613       1.14889084
C        4.18070673       3.42472309      26.04135254       2.33808426      -0.09926594       2.47476495
C        7.63974344       4.57692237      26.39534864       0.49011166       0.12868836       0.13124237
C        5.24675499       0.45592292       1.13499042       0.41786839      -2.89846548       1.83819761
C        7.76673433      11.17033179      28.29834757       1.86605435      -0.26636309       1.26715492
C        3.19807704      10.14889463      28.96196901      -0.38260474      -0.94504290      -1.13651033
C        8.26321485       5.78303660       1.34920922      -0.39420438      -2.00831072       1.46046123
C       10.37643267       3.70011278       1.73383930       0.99179779      -0.68502496       2.60131613
C        5.59370761       3.12791421      26.23185270      -1.65435883      -3.40068815      -1.82341101
C        7.61949852       7.82379950      29.81505799       0.47859209       0.88936863      -1.18861289
C        1.08038795       4.23144889      30.86387275      -0.92958241      -0.46716044       0.57827607
C        5.31812597       4.53350813       3.04421627       0.74237575      -4.41371879      -0.63654932
C        7.54528218       3.50536405      28.96118673       0.77016266      -1.94086620      -1.52667225
C        9.64062621       0.41247481       5.72711433      -1.20629174       1.05242718      -2.06588969
C        2.72381739       8.19089542      26.39869679       1.13749539      -0.24052787      -1.12461918
C        0.11757412       5.88304179      26.42948722       0.88315436      -0.10446689       1.43783040
C        3.84553072       6.74465357       2.65858488       2.06635175      -1.32990849      -2.74720183
C        9.97328430       3.57584304      26.39212566      -0.57135625      -0.84347640       1.08271724
C        7.29507163       2.03919344       1.19622708      -2.84263169      -1.07214142      -1.64777737
C        8.44060917       6.41550701       4.54819122      -0.93237094      -4.87035382      -0.35213456
C        1.84694005       6.24984414       4.10420195       1.80895138      -0.27661084       1.50273771
C        3.88302843       1.74585092       4.28012045       0.71449226       1.99559892       0.41822149
C        1.04745184       9.49995052      29.75685657      -2.69718125       3.00525138      -1.65778446
C        2.00891073       9.91656916       3.35268384      -0.25651308      -0.27853831      -0.78355855
C        2.49505990       7.55745398      29.71539587       1.27568178       0.24141503      -3.31293701
C        7.19857797       6.66246573       0.68990595       1.03878203      -0.41642730       0.37008084
C       10.96938426       7.50024203       2.48689067       0.04978554      -1.45781226       1.92448263
C        6.30984499      10.95064105      30.54401523       0.65790528       0.54081956       2.38765015
C        6.03216321       6.72751370       4.13555562      -0.21256053      -0.20609398      -1.73095799
C        9.42658102       7.96551397      27.99851635      -2.97737815      -2.81913837      -1.05345687
C        7.15838169       5.80723341       4.13314620      -0.19448335       2.71895568       2.08337312
