216
Lattice="11.29109 0.0 0.0 0.0 11.29109 0.0 0.0 0.0 31.29109" Properties=species:S:1:pos:R:3:force:R:3 energy=-1488.37293866 config_type=Amorphous_Surfaces kpoints="3 3 1" kpoints_density="5.39211557 5.39211557 4.98107131" virial="-27.06830799 -29.48828334 5.40824758 -29.48828334 43.51220835 -12.26716725 5.40824758 -12.26716725 47.56499529" cutoff=-1.0 nneightol=1.2 pbc="T T T"
C        4.93653229       4.11919287       0.34773788      -0.62992321       1.00338254       0.71247320
C        0.98371363       3.55172527      25.73225915      -0.50578039       0.27501194       1.30465500
C        8.02563903       2.98825472       2.09487589      -1.37857435      -0.23633683      -1.88449903
C        0.12825549       2.70647427       2.20786802      -1.58372708       1.24827410      -0.53233416
C        9.22919018       3.25822468      28.81483830      -2.01135597      -0.07832736      -1.78367275
C        1.26494081       7.01116846      30.09827365       1.20323985       2.31281334      -1.48091545
C        9.76582182       0.79442980       2.73809554       1.49044236       1.15844086      -0.58310616
C        9.09658762       3.24142354       0.96620628       2.71275115       0.00439368       3.15402488
C        8.11215136       2.26754444      28.37125581      -0.76884545      -1.56715640       3.69345086
C       10.30606660       6.42308333      29.56873453      -2.23139776      -0.40898935      -5.03605304
C        6.28109787       6.68283486      26.46143542      -0.08247876      -0.53866163      -0.60927409
C        4.09331369       7.84004738      26.54989533       1.00223293       1.99104522      -1.88789479
C       10.44799560       9.48524952       1.00732277      -2.89313082       1.54344465       0.54327297
C        4.44751519       8.82255287       5.01555494       1.18759569      -0.84195420      -0.28721988
C        6.05142581       9.44734533      28.50493135       1.44624981      -0.90597251       0.03929905
C        8.77239784       0.42709677      26.93139630      -2.66139311       0.28218186      -0.33577752
C        1.21322762       5.72439068       2.58580180       0.13793411      -1.52321716      -2.08839127
C       11.05999526       3.80524411       4.66284178       4.02411113       1.69650099       0.02570836
C       11.04640079       2.70415960       3.71888346       2.14389892      -2.82870659       0.20859315
C        1.72176702       3.13821168       1.86282117      -1.12366435      -0.04187996      -0.71372642
C       11.13729406       4.39191786      25.80920394       3.71413359      -0.32476199       1.66976013
C        8.31541356       5.87247333      27.50696461       0.68157669       2.97495880       1.90668902
C        2.62975132       2.26325383       2.75981156      -0.87659173      -0.61204426      -1.79281828
C        9.44908416       7.25551894      31.21467716       1.38500238       2.32294731      -1.03075888
C        5.86808109       8.38586996       4.69087859      -0.95168762       0.69942899      -1.55056014
C        9.63961001       7.72897693       5.06224125       2.72641255       4.74782620      -0.88437452
C        8.56264327       6.78252389      26.24308620      -0.25097224       0.17110915      -0.56479103
C        8.50697819       8.75366593      29.03431401      -0.43640018       3.41639541       1.89541221
C        7.10118103       1.20220752      28.96719462      -0.15872910      -0.19934871      -0.16405447
C        2.82291928       4.27503250       3.57043853       1.14336765      -0.89858008       4.66336701
C        0.24257778       7.52976823       1.06752683      -2.46161253       2.04229814       0.97605537
C       10.31725607       9.08643693       4.91717576      -0.75942285       1.28634084       0.68810512
C        9.74626565      10.13603408       5.61130601      -2.19360206      -0.78542345      -1.08927234
C        0.08670428       0.75301408       0.64562906       1.02986332      -0.23267621      -0.09195991
C        9.58927433       2.02119544       3.61437122       1.10916976      -0.84315530       2.72194202
C        1.76628779       2.64929619      26.46340676       1.27962898      -0.99966474       1.38135090
C        7.02051748       4.40242986       2.17316620       2.19649681      -0.70474541      -2.28727741
C        4.86817604       3.25375341       2.66143237      -0.43208577      -1.10657334       0.90477907
C        6.19496944       9.23042091      25.87704303      -0.36586766      -4.01897785       1.10098384
C        0.09245144       1.81898331      29.63078476       2.42317687      -0.64965556       2.29886199
C        3.25560514       2.51940349      26.84953881      -1.98727054       3.15261808      -2.26568281
C        4.73619448       9.42026930       0.71534561       1.11867860      -1.96604221      -0.52295410
C        0.76970231       8.34107821      30.73320116       1.38233899       3.55385637      -1.74535067
C        4.38560614       3.21353454       1.16296465      -0.13796404      -1.74223191       1.39964309
C        0.73948736       0.60502177       2.91817576       0.53479810      -2.35215524       1.22215026
C        6.17799893       5.97562873      31.25250809      -0.33887155       0.49287682      -0.75008583
C        1.82356749      10.61705709       4.82308345       3.30061087      -0.70392916       0.67404312
C        4.00081708       0.75771118       0.88588205      -3.07585543      -2.16210822       1.12604171
C        0.78655991       5.94177804      27.82813636      -0.46694344      -1.15059063       0.57666910
C        0.51451239       6.87334942       4.46530113      -1.70264167       1.58904162       1.70483341
C        8.55209739       7.63377046       4.21199975       0.53315006       0.59580445       0.23834793
C        5.36186765       6.98712973       2.80972084       3.69827918      -1.34908598       0.53811704
C        4.97703343       5.64301580       2.19622773       0.34403119       0.74470419       3.21869893
C       11.07089116       1.22847059       1.90368733       1.33523690      -0.23145879       3.25344137
C        3.52454762       6.86607796      28.66135551      -3.67962903      -4.59359468       0.51446865
C        1.57608938       1.04585979      29.83815082       0.85145782      -1.01804134       0.03967748
C        0.96270092       0.10342638      26.88192509       0.36972430      -1.58349292       0.15874078
C        3.51246615       7.95877319      30.68031921      -0.61520141      -1.97975394      -3.66755701
C        1.29683814       5.83015432      31.23755095      -1.57525916      -3.08535254       1.26716152
C        8.30942928       2.46814195       3.44064309      -1.63253138       2.84613764      -0.91834929
C        7.42691769       9.79657875      28.08872856       0.70930449      -1.87133756       1.94518493
C       10.91797593       9.21096636       3.54083716       2.12652892       1.68896408       0.98327794
C       10.14190544       4.66748820       2.68349259       0.15806541       1.88780922      -1.65241504
C        2.92483266      11.11039869      27.88054894       0.03039092      -2.59814015      -0.47793344
C        3.63883603       2.96717425       3.57206567      -1.34956882       0.66631759       0.49491950
C       10.16308753       3.04438272      27.68382185       1.06993619       0.25866446      -0.28397593
C        2.11615351      10.53747749      26.91290327      -3.77300772       1.31955939      -0.35057747
C        6.22433756       1.34920622       1.80946986       1.53863324       2.26674791       0.13646793
C        4.13955071      10.11625209      29.79090127      -0.94600434       1.58251221      -4.90928251
C        5.88524355       2.10633026       3.06843558      -2.50433561      -2.56071772       1.40286548
C        7.68532557       9.26953325      26.65002682      -2.69094419       2.76007602      -1.10327950
C        8.22378636       4.29124650       0.18959271       0.51577164       0.90952816       0.42301175
C        2.63736151       2.31969799      30.68998816      -0.53550426       1.32407011       1.98121773
C        1.27466244      10.97167635       0.56007922      -3.26987368       2.07468807       1.41653811
C        0.24139221       6.94444941      28.95786987      -0.26873382      -1.60932028      -0.94104060
C        9.45491036       5.57696292       4.81184995      -1.94733106       2.15473405       1.35037752
C        1.81351842       3.28943325       0.33096586       1.77892982      -3.12396838       1.05642870
C        6.40366266       7.59827127       1.79094554      -2.72940784       1.04264112      -0.95248349
C        9.99873442       4.55732104       4.12679411      -0.56401171      -0.56771576      -0.37445359
C        2.60276561       8.29192809       1.67807857      -2.43084193      -1.00005949      -0.47448803
C        5.56139251      10.22296418      29.49817313      -0.44757617       3.47882343       3.00771884
C        2.92684248       3.26008771      29.44394567      -0.37830270      -1.27269255      -0.14770280
C        2.83599437       1.10581548       5.32355314       2.32480661      -0.82750303      -1.57341996
C        8.03626394       7.43390687      31.25088095       0.82021439       0.25625167      -1.89276528
C        2.26432648       5.79864089       1.26838433      -4.61511671      -0.90077951       0.08706680
C        9.25320633      11.24280930      28.95204973       0.65668472      -1.67694829       1.88895172
C        7.31861355       3.42886692      30.63009701       0.07408407      -0.99848270      -0.81586484
C        6.56253958       1.17871076      30.48668995       2.29775840      -1.75115709      -3.36842681
C        6.48355841      10.55745143       3.97471942       1.81591597      -1.81238275      -1.43284838
C        5.73361550       0.50538919      25.95336199       1.70935386      -0.08621077       1.47257827
C        7.11485454       6.76142084      27.90892996       0.94781779      -2.23624021      -4.64640877
C        7.93817824       1.90617310      26.90220172       0.97628293       1.75139308      -1.07120102
C       11.21143136       6.18024586       0.59765982       2.67738593      -2.96387817       0.72006462
C        9.42341951      10.56797472       0.39386095       0.99904752      -0.78143424       1.82126304
C        1.42194342      10.90006826      30.48931840       0.56390704      -0.42595749      -4.11099979
C        9.59695227       9.39579021      25.91794048       1.68711380      -0.83467454       0.89599432
C        6.46225212       9.14804112       3.66928709      -1.81111045       3.01661963       2.33667173
C       10.09567972       5.91014040      30.84988563      -0.65027883       0.42943396       3.21232808
C        8.51328991       3.44242752      26.22356056       2.04239254       0.28582229       0.34433113
C        3.67162536       9.24837374       1.78578251       2.27771647       3.02108909      -0.92619225
C        5.42904964      11.12229950       4.60066638      -1.06376656       1.37095521      -1.76218310
C       10.09353441       0.98021340       4.49180468       0.88040266       0.02768683       1.78146760
C        1.32541589       8.54406942       0.82980842      -0.04791946      -0.52038841       2.05114557
C        6.55490681       6.98476989      29.18191408       0.68090525       2.40294008      -0.10530918
C        8.75359818       8.20792238      26.62724691       1.29843664      -0.62750651      -0.95416322
C        1.59149043       3.90452667      29.25598009      -2.58021443       1.40616528      -0.58552760
C        2.13990996       5.05306763       4.60877077      -1.34680739      -3.50797925       1.85450648
C        9.44612589       2.33290856      31.01460193      -1.23223063      -2.27588194       1.93055581
C        7.11285602       8.84637707       2.42336976       2.41245749      -3.52082869      -1.01244255
C        6.29014204       3.62142517      28.44723058       2.12178938       2.49163714       0.00639576
C        3.08900511      10.42522147       2.24735737      -1.28010621      -3.23957845       4.23494288
C        3.08684851       5.47918208      28.56563606       3.40394148      -0.93935113       1.49742561
C        5.27995080       8.05023102       0.77642582       2.11185277      -1.80152974       1.76575423
C        4.59373480       4.80660572      25.94078298      -3.93712413       0.96754861      -0.23063997
C        8.59644879      10.33263453      26.04426261       0.39304055       1.77179058       1.79205903
C        5.42521067       5.48046926      26.75184803       1.47226455      -0.07845523      -0.59058338
C        9.97266329       3.50644800      30.08794759      -0.94276140      -0.94453672      -0.97468229
C        0.22211832       1.24671699       4.32887197       3.83133398       1.58489241      -2.28848787
C        4.44306650       7.45320334      27.91650240       2.96074773       2.13270248       0.59235301
C       10.59604437       8.37478211       0.05338260       0.11762062      -3.52350994       1.15881542
C        6.37309768       4.27456956      27.13225381      -0.13539493      -0.00423568      -2.11150898
C        3.35064225       2.11284522      28.32838702       0.00005843       1.70298831       0.88925129
C        9.89166101       8.79221371       2.37996901       1.13805758      -1.56675651       2.07422557
C       10.09352312       0.43489891      27.79074351      -0.43659026      -0.64173235       0.18291954
C        6.29127115       1.72851909      26.74224166      -1.26913666       1.16304141      -0.90295329
C        9.26604430       6.62466316      28.41960054       0.79472483      -4.83019484       3.08625109
C        5.90055427       1.88325219      28.29174515       1.66701682      -0.10360153      -3.19543234
C        7.90917143      10.92506674       3.79673570      -0.61900416       1.09744261      -0.64153472
C        2.24749146       8.95767334      28.76286380      -2.22148623       1.06322125      -0.90982160
C        5.74845199       3.51298554      30.59251642      -0.48681868       0.57238525       0.16630996
C       10.93570294       9.46569335      26.39300181      -1.66770624       0.89434706      -1.61516607
C        1.81226511       5.03200975      28.36349562      -2.24905076       0.33952306       0.47181454
C        8.57518767       8.40297596       3.00544661      -1.96070254       0.33294975      -1.22829561
C        2.67566089       0.11677245       1.38578850       0.56170351       2.70217651      -1.58304934
C        9.87247745      11.00430761      30.40232917      -2.13230538       2.42227130      -0.94842410
C        3.42918307       7.89692060       4.94849814       0.93622146       1.08636924       1.20728980
C       10.58068849       1.18344173      30.82075363      -0.70426802       0.24251090      -2.75131499
C        0.67713796      10.33153930       2.89023282      -1.24111058      -0.98540588      -1.48124708
C        5.09903366       1.21140976       4.11637418      -1.18838888      -0.08924106       2.92539689
C       11.14091850      10.54128259      27.40533115      -1.05159824       2.46973533       0.86104263
C        0.48199405       8.26536016      26.80181990      -1.52972469       2.56616500      -0.64306027
C        3.90628808       4.51136630      29.30000665      -0.93450246      -0.94178817      -0.95480285
C        5.60641008       8.02554870      28.49075648      -1.83045481       1.25793922       0.63030900
C        1.45116476       0.77362032       5.05172744      -0.73052482       0.11594427      -0.16830577
C        5.77165518      10.55118487      25.79171222      -0.34728788       1.88524261       0.35379038
C        7.76334700       2.04599067      31.07655829      -2.48951545      -2.16446432       1.98048471
C        2.94197254       7.36882503       3.74911066      -1.31550325      -2.32798749       2.04016369
C       10.86987589       1.76171490      28.11441854       3.68580731      -0.71256030      -0.06441563
C        6.19090465       4.76077519       4.38819988       0.78176513      -1.71432467       0.28194822
C        5.85021859      10.49606177       0.73969008       0.26956923      -2.36834861       0.61715033
C        8.32732566      10.66450225       1.29338591       1.02950474       1.40934521       1.48597821
C        6.98624903       2.60401892       3.94211410       0.66800405      -1.57893027       0.71511866
C        4.29120134      10.19980615       4.91235693       1.07211873       3.88347932       1.70460461
C        4.02736244       9.20726289      30.73561057      -0.60260505      -1.88334608       3.05862655
C        2.29040890       1.01043964      28.49056874      -0.44544647       3.47546476      -1.04700449
C        1.09829562       4.36742749       5.38084713      -1.01509514      -1.43383991      -2.63347826
C        1.94947444       4.47391376       2.52788200       0.03185637      -0.17944404      -3.91617681
C        0.44799658       7.07070638      25.86652922       0.43375292       0.20278901       1.58906702
C        1.82659350       9.04542769      27.21223384       2.99808081      -1.80744520      -1.03983021
C       10.88773839       5.88936480       2.19585224       2.18485566      -0.08208221      -0.85654805
C        8.69795569      11.19558996       2.57325408      -0.36492727      -1.11913713       0.76204810
C        2.04704074       8.50268758       3.11161728      -0.89174277      -3.50064223       1.22792408
C        1.06161086       1.51078172      27.48171270       0.45067812      -0.82278361      -2.50778291
C        5.21004766       2.05676237      30.41531497      -1.93477347       0.77147441      -0.64125783
C        6.15363276       5.78486576      29.86894125      -1.08677212      -1.35636588       2.27023592
C        3.17574326      10.94190175       5.21328334      -1.46965623      -0.74631537       1.29193097
C        4.96119204       5.55694382       0.68881076       1.29290771       0.00066286      -0.41414666
C        3.91975835       1.97332122       0.26775786       2.16076326       3.51204341      -2.87130530
C        8.48559287      10.86319156       5.07666644       1.26479080      -1.02321632       2.05963187
C        7.19122747       9.86153639       1.32048400      -3.18218811       1.17678942      -0.24574541
C       11.09944633       9.58070440      28.78642599       0.53552308      -0.38342426      -0.29825507
C        4.23453136       7.02166918       0.37236397      -1.75259493       0.74547718       0.72299617
C        7.52753259       6.01659280      25.68097306      -0.37030484       0.56860585      -0.06089823
C       10.44937311       6.58609280       5.12763963       2.05694862      -0.03074849      -0.75949454
C        0.18801923       3.42421499      29.88705879       1.64232620      -1.51951079      -0.58247210
C        3.13936337       6.84593465       1.48551321       3.14143741       4.16533966       0.33237541
C        5.45350614       4.40053296      29.44350759      -1.04425385       1.31029273      -1.11900977
C        9.71580229       9.88811561      29.41008871       2.11012025       0.10591636      -0.92285776
C        2.35637145       0.85767120       2.62069137      -2.87439996       2.77355564       0.28355171
C        6.85868229       3.64336376       4.75615181      -0.22544380      -0.10448137       1.67130433
C        0.61155931       9.86196545       1.39317320       0.44850347      -0.09543019      -1.74674020
C        0.57061782       7.99324489       3.46745956      -0.29512303       1.70989702       0.90434374
C        4.66863989       1.91080245      28.94973419       0.76065094      -2.59994795       0.99709307
C        5.46266322       7.92518220      25.95833728       2.85528243       2.17516436       0.07087290
C        9.41008473       4.59565429      30.81014595       2.43136298       4.69570366      -0.50303284
C       10.94737793       8.16316450      28.16476591       1.29177587       1.69295701       1.08627077
C        4.32108885       3.42648450      26.26004597       0.93377116      -1.50848437       0.94366567
C        7.75018159       4.67325795      26.63406837      -0.41316408      -0.74236234      -0.95485729
C        5.21354790       0.43776685       1.38331651       2.63975311      -1.48226975       0.13748647
C        7.90602122      11.27419853      28.39791582      -1.55059691      -1.41641547      -2.11318474
C        3.27063358       9.99669073      28.64079726       3.14910310       1.03100850       4.07100207
C        7.61973563       5.21556900       1.16465437      -0.88155687      -1.65561317       3.16150127
C       10.38997069       3.67442555       1.63511591       0.01163720       0.32740460       1.59833781
C        5.70105200       3.17137361      26.40576857      -0.92426399      -3.02062941      -0.85494628
C        7.60353292       7.82545929      29.97683293       1.19261602       0.12380473       0.29315170
C        1.13387384       4.23468943      30.87188327       0.34951142       1.09975717      -1.63484678
C        5.66479631       4.54320717       2.92121100       0.99518268       0.46605892      -1.19152276
C        7.67911547       3.54909445      29.08434846      -0.45309810      -0.19581122      -0.71569939
C        9.55121207       0.30236410       5.64428681       0.14670598      -0.19830515      -2.33669621
C        3.07403313       8.68011577      26.43261633      -1.26117025      -0.71618231      -0.32452943
C        0.28376767       5.86690682      26.47726871      -0.85997851      -0.90833360      -0.73542651
C        3.96510337       6.77081503       2.73512289      -2.27797151      -0.89176108      -0.31469161
C       10.04000335       3.62654003      26.41365393      -2.84098319      -1.12139835       0.12000786
C        7.40649211       1.89083980       1.29216556      -2.10900020       0.09385379      -0.79482320
C        8.06485298       6.31238548       4.62163141       4.26636428      -0.63733229      -0.24829512
C        1.70795802       6.23172194       3.95087561      -0.41759620       1.42409799       0.74758363
C        3.97987211       1.86511870       4.73036795      -1.25520169       1.46536596      -2.48573917
C        1.14421648       9.55448648      29.73548475      -2.21442460       0.16219910      -0.58710286
C        2.04390182       9.97799269       3.39692944      -1.99519509      -0.68035501      -0.46515801
C        2.54373579       7.63657065      29.37316522       2.35871702      -0.07264126       4.73726999
C        7.21832609       6.57505011       0.84889598      -1.67445473       2.28757707      -1.23350798
C       10.99490213       7.43040663       2.41692379      -2.47548254       0.22883904      -1.78120472
C        6.23295267      11.02177492      30.67790980       0.38135817      -0.95314870      -1.74827452
C        5.98099199       7.07053701       4.26491298      -2.27603915      -1.27740332      -2.03832030
C        9.37412261       8.01204455      28.14808776       0.89633404      -1.12033515      -5.09685619
C        6.77622346       6.03893787       4.75014392      -2.71677894      -1.02276739      -1.69628428
