64
Lattice="7.527393 0.0 0.0 0.0 7.527393 0.0 0.0 0.0 22.527393" Properties=species:S:1:pos:R:3:force:R:3 energy=-451.02673539 config_type=Amorphous_Surfaces kpoints="5 5 1" kpoints_density="5.99123926 5.99123926 3.58602245" virial="1.80184155 7.9196535 -10.64558376 7.9196535 -12.34514304 0.66957715 -10.64558376 0.66957715 -9.35302637" cutoff=-1.0 nneightol=1.2 pbc="T T T"
C        3.41490722       7.24498780       1.25482084      -0.08900989      -0.43287842      -0.92032616
C        4.30914645       7.52718976       2.60056225      -2.84427369       1.56386273      -0.34518664
C        1.99294504       0.38157108       1.07036655      -0.29491707      -1.36281863       1.51698578
C        6.91418898       5.95568087      18.65892149       1.39303539      -2.70541578      -0.33049068
C        5.19022027       1.92207464      22.18508926       4.19899445      -2.33523874       1.30711208
C        3.30684396       0.42608055       3.43686919       1.03622477      -1.22538786      -0.01876542
C        1.42307623       3.47207024       3.19645685       1.14839188       5.10816440       0.52182467
C        3.96832115       7.19671463      22.31946516      -1.02981213       1.81332215      -1.99519990
C        2.46510830       5.73113121       3.76687297       0.30439416       0.37772426      -0.50349091
C        5.02914159       5.13712957      21.52113941       1.33844563       3.09453777       2.52847810
C        6.07587075       3.42894581      20.15870521       1.78442471      -1.23608081       2.18203088
C        2.83112778       6.52584325      19.07923759      -2.14344746      -0.90677579       0.66636168
C        6.17840137       1.91870237      20.77129261      -0.60548419       2.54809151      -0.84304754
C        1.91807759       0.34108876      21.95877907      -0.63459356       2.37610512       2.31372489
C        2.02286643       1.74973498       1.79439696      -1.30789234      -1.50461912      -0.83304251
C        0.92973842       5.39476965      20.16007938       1.46001444       1.18374887       0.83999175
C        0.25435814       4.85272961      18.94963750      -0.92740550       2.45711053       1.05429144
C        6.42320725       1.44562830       1.88263676       3.08520937       0.02954842      -0.79677968
C        2.56627646       2.90808032      22.19655571      -0.66280696      -0.01114098      -1.41307091
C        4.93028434       6.27063452       2.86985470       2.08435704       0.67746768       0.22656279
C        0.11868441       1.56578055      20.66394958       1.34098308      -1.67709968       2.60769230
C        6.26906129       4.49896472      21.33181920       2.70287830      -1.59571948      -0.29605283
C        1.03260024       0.74866698       3.56097259      -2.87183291       1.32086436       0.01858369
C        7.37545257       0.55644747       2.83009386      -1.75910917      -1.56377321      -0.34758325
C        3.97474202       3.19902159       1.48338377       0.07394002       1.79547268       2.17239345
C        2.53351724       5.40740062      22.48287887      -0.48905548      -2.07032597       1.62238455
C        0.04252224       3.75975967       1.04436994      -1.34508700      -1.18514186      -2.97877112
C        2.69573256       6.64839674      21.67986742      -1.56518706      -0.96188956      -1.64079447
C        2.07944984       6.16973734      20.16690518       0.12425848      -0.49848982       0.93058029
C        1.03929962       6.61788069       1.58572572      -2.62357164      -0.07717873       0.73334446
C        3.99657146       4.37930175      21.01848569       2.06273590      -0.41731084      -4.34933728
C        7.27823629       6.81095079      21.85195418       0.46220295       1.16267068       0.06916113
C        6.20040394       5.69967423       2.68884710      -0.19235275       0.17324318      -0.54634082
C        1.83687208       4.58143484       3.97822497      -1.45339510      -2.24667393      -1.39039435
C        1.33664670       3.98926989       1.66628368       0.85701221      -0.46352583       1.20575600
C        3.16602902       5.68927890       1.31192779      -0.35388051       1.90231784       3.08399478
C        3.84198891       7.02199631      18.66718905       1.85936340       1.14683634      -0.82126024
C        4.56182598       3.51318486      20.02378865       0.02699341       0.35912029      -1.14946379
C        2.48215031       2.14280791      20.03306994      -0.09109712      -0.15507624       0.07056001
C        6.34888930       3.05994547       1.55330880      -0.53911731       0.55512893       2.89846433
C        3.75879617       5.36105446       2.80134890      -0.20443349       0.33556654      -0.40466446
C        1.03644674       2.57624273      19.96868665      -2.67543591      -0.98171894      -0.17933232
C        6.15283082       7.14556599       0.08801452       2.74332939      -2.91231636      -2.12363147
C        7.40357491       4.24047405      22.31813605      -2.05665389       1.79567101      -0.89947141
C        5.03419247       1.20152247      20.03881442      -4.70815649      -0.53700198       0.06177986
C        5.01194150       0.10420923      18.98996153       3.99944327       0.49756290       1.30853168
C        5.84742190       4.18184318       2.60252213      -0.68003215       0.11451202      -0.18866680
C        6.25679164       6.99641823      18.80730943      -1.88559489       0.39837223      -0.71834390
C        5.07302629       6.34045862      22.26853073       0.09053858      -1.32548488      -0.57746192
C        4.17308882       1.01286342      21.55783653      -0.23584091       0.40415031       0.03535544
C        1.46381448       2.08285223       3.01087618       1.14237604      -2.06817083       0.31101342
C        5.05053444       2.94831424       0.72718425       0.91472780      -1.23813689      -1.16071456
C        2.70907863       1.55596482      21.51726470       1.55637044       1.10405674      -2.96615702
C        6.10622873       0.91568478       0.62090001      -1.62818195       2.28117269       1.18191037
C        0.61196200       0.43824482      21.42819139      -3.32445142       0.70346302      -1.22651066
C        3.93300262       2.35327382      19.62847796      -1.53029575       0.07069219       1.02828933
C        0.03276674       5.43726931      21.41433704       0.70094003      -0.68003077      -1.04469763
C        2.82068729       4.19734961      21.67574491      -1.86962442      -1.24257403       2.39677533
C        4.46609260       4.11439774       2.64886098      -0.30417623      -3.31515840      -1.32410762
C        1.65714051       5.37282730       1.23756486       2.53947879       0.93964199      -0.84666224
C        2.15558942       7.34321275       3.87311215       1.44401451      -0.47181908      -0.99632711
C        2.53250105       2.90847174       1.08061651      -0.60734961       1.32883328       1.80386170
C        7.33264429       6.63756482       2.30277264       1.18145751       0.70583873       1.07980432
C        7.43822350       3.56366356      19.46283404       1.87702001      -0.91989797      -1.60145288
