216
Lattice="11.29109 0.0 0.0 0.0 11.29109 0.0 0.0 0.0 31.29109" Properties=species:S:1:pos:R:3:force:R:3 energy=-1493.63573102 config_type=Amorphous_Surfaces kpoints="3 3 1" kpoints_density="5.39211557 5.39211557 4.98107131" virial="1.71184757 41.92541192 7.67255057 41.92541192 14.50892073 -32.01733227 7.67255057 -32.01733227 57.57324195" cutoff=-1.0 nneightol=1.2 pbc="T T T"
C        3.01877453       6.23167677       2.84795856      -1.27426167       1.55463773       0.84277797
C        3.79473211       1.34751255      30.89372445      -0.89940077       3.72702201      -5.43876211
C        4.88914359       7.92978896       5.78910198       2.06011993      -4.05339499       0.90234678
C        2.10242354      10.80663449       3.54487371      -1.00623292       2.61611108      -0.57303790
C        4.25426818       5.42294116      28.38402257      -3.16646318       0.84723140       3.74069285
C        6.46884612       4.53916496       4.95275373      -0.71804082      -2.18225255      -1.95445509
C        5.67547768       9.75371777       0.51893144       0.46040999       0.63746768      -0.95354419
C        1.74000213       1.08942082      26.48249433       1.77208622       2.47814764      -0.83794564
C        1.52062755       6.08560394      26.82725956       2.64811459      -0.21290316      -2.84837753
C        5.19714194       1.53574632      29.89071985      -2.06275565       4.21088693       2.24906923
C        4.48112876       8.34917392       3.38000096      -1.59432947       1.11127647       0.98104288
C        5.47606574       4.77188562      26.32366075       2.42566674      -2.11602409       4.29094573
C       10.49784576       7.20922547      31.17268452       1.51100341       0.24879775       1.24827466
C        1.41744957       0.42300940      29.62361910       1.90175917      -2.74806757       4.16438948
C        2.31906568       6.72210527      30.11880060      -0.78003825       3.57354696      -0.57551685
C        7.16747102       9.12818009      29.88471196       3.85951605      -4.42383021       3.38137373
C        1.79833190       9.93865453      26.55064632       1.99275503      -2.26826967      -4.35034037
C       10.04515209       6.60200194      29.96334647      -1.84670526      -1.61729068      -4.60019632
C        9.48243804      10.27616779      25.78426494      -2.79092955       1.17615971       1.24508368
C        6.98640710       8.00409563      26.76101632       0.00157615      -1.11221522      -2.12138798
C        1.69090847       3.68409072      26.78914701      -0.48206951      -2.31500235       1.34331391
C        6.26212884      10.97847359       0.85947237      -0.55811250       4.71740984       0.09484655
C        3.61492150       4.74666133      29.43918942      -0.55927917      -0.21214204       4.55755119
C       10.19131525       4.14637053      31.26427354       3.22502513      -2.90654263       0.24117186
C        3.34801142       7.72250713       2.52819491      -1.82811203       1.30118803       3.36516519
C        4.26660934       6.84212955      28.50214644       0.33972495       2.19036741      -3.96037952
C        9.65787900       4.58176625       1.35196283      -0.18341558       0.27542252      -4.44976056
C        4.76310115       7.80169155      27.52336114       1.79392341      -3.38222285      -1.91318481
C        6.98082930       4.67597910      30.22221766       3.73227532       1.70184082      -3.66253519
C        9.20746612       7.83541803       0.57681995      -1.66361183      -1.08846601      -2.81830417
C        6.13136673       9.76351843      27.79853499       2.17331384       2.85024494      -2.35904814
C        6.71852599       3.06581321      27.33157805      -0.38031356      -0.89018512       1.08204586
C        6.53652491       1.96740469       4.96063908       4.75609446       3.04501977      -1.68428216
C        8.80114496       6.72216172       3.29786185      -3.35578894      -2.07889462      -1.61688713
C        8.18983406       6.27450388      26.25306805       2.98286429      -1.44405723      -0.91809767
C        3.76475427       5.76593060       0.39029377       0.21415300      -1.97780545       1.52375084
C        7.63611900       3.21462978       5.16256048      -2.74394929      -0.09993721      -1.41193128
C        0.89407367       6.02003658      28.13150348       0.18566801       1.70666053      -3.10674816
C        6.56181695       5.60300017       5.88770020      -1.03627964       4.75184117       3.71017263
C       10.27064645       2.41607873      27.42357386      -3.78249644      -1.34498740       1.43603386
C        5.12984705       2.88287497      29.54698723       0.77440001      -1.57867745      -0.94895014
C        0.08463801       6.15241332       0.55889016      -3.03907002      -4.99514408       1.15483988
C        1.83567154       8.47932631       2.20354985       0.31060807       1.66858059       4.76511390
C        5.96831210       4.20455351       2.13793243      -1.25676275       1.85835846       2.99976903
C       10.55364633       5.21502703      29.44491569       1.22931704      -1.01784078       2.90123163
C        0.28705338       1.73909885       2.71562854       1.89014941      -0.10953438      -1.74699044
C        8.63737899       9.59685065      28.09492419      -2.14006588      -5.11363585      -5.21260168
C       10.67562398       9.69220391       1.04972220       0.31487686       0.42469221      -0.60673790
C       10.84228046       5.34930067       1.85553035      -2.62027563       2.32313950      -0.66811621
C        7.85322408       7.05904268      27.28210684      -1.95134429       2.76979648       1.57950773
C        8.22482514       0.43544089       3.40957104       6.37932836       3.31271068       0.53775964
C       10.67395289       6.72356182      27.35686125      -4.73960701       0.56836903       2.67678328
C        8.66293073       0.51263807      31.03641182      -6.89193521      -1.73717057       4.77343701
C        1.12364411       9.99159845       2.93494779       2.88108409      -4.24845858       0.35849865
C        0.41219253      10.45110065       5.96523952      -0.15898794       1.17787403      -0.71692967
C        9.31502505       1.23063848       2.82242503      -1.60874418      -5.53766140       1.39776982
C        7.70117826       5.91839419       6.55739211      -6.67732289      -4.21306455      -0.63834636
C        9.52634909       4.74118515      26.27797576       0.66545566      -2.91170829       2.73727009
C        1.84838531       1.12062939       2.71375107      -0.04372154      -3.68135899      -3.00406991
C       10.82263397       7.73859694       2.60855043       0.61568635      -1.90244333       0.27401465
C        5.30811078       3.04640383       2.27652067       0.00343183      -3.60981649      -1.80245375
C        1.31202466       1.68082553       5.33018685       3.78531057       0.52321933       1.89859582
C        6.85880649       4.22897614      26.48912804       0.90259069      -1.67310691      -0.50993217
C        0.90054347       1.50872674      30.46713302      -2.71290242       1.59667139       0.41342508
C        4.80479915       4.44307779      27.68009821       5.05030329      -0.15602151      -5.09500677
C        3.43007507       7.54139805      29.37019257      -3.67257064      -0.33528084       1.80051400
C        8.91552370       4.04942523       3.36357314      -0.17818678      -0.49900309       0.12523414
C        3.97249903       0.90721650       0.97396647      -2.19092302      -5.66408798      -0.34918370
C        3.55562070       8.18252872       1.19228440       8.42986975       1.85305607      -2.20968027
C        4.02006839       1.65975636       5.14459940       1.38928173      -2.28903629      -1.49538814
C        4.11896705       0.24191160       4.77605294      -3.65346504      -0.49868665      -0.31607176
C        0.21579531       8.22988355      30.83020354       4.42141105       0.12407728      -0.61368870
C        0.49403035       3.09250535       5.63715245      -2.14109062      -1.87552259      -4.14343474
C        6.60633772       6.61183648       0.63833824      -0.02705076       0.01916805      -1.52711095
C        9.56596952       3.42026311       2.16621958       1.06575015      -2.40480431       1.54845100
C        1.33413261       6.59853558       0.99424309       2.28113948       3.01195737       2.92637029
C        7.48234565       9.34143491      27.04219805      -2.98307811       0.90310167       0.43049552
C        3.68639410      10.75226789       0.81654099      -3.71922516      -2.54176101      -1.24327462
C        1.92515343      11.14230731      25.78995992       0.82507479       0.30246962       0.90653549
C        7.36912989       0.60125054      26.99829665      -3.80227640      -5.01009156      -2.08801168
C        1.29464767       4.12106719       4.97168483       3.30108849      -0.35429902      -0.73766579
C        9.83252958       9.58025275      30.03982189       0.90147955       1.20589028      -0.02452960
C        4.82280844       4.71232512       0.05766948      -2.35745596       0.37028030      -0.07901013
C        1.56371435       8.47302588       5.48945850       3.67506451       4.24084727       0.75402846
C       10.74894831       8.73879556      28.86312045      -5.06862007      -0.93934268      -2.82615031
C        9.96835010       2.61211463      30.67693978      -1.89197145       5.72537825      -2.42334623
C        3.75838609       4.30625236       4.27639681       6.78350126       5.68811214      -0.74043841
C        4.57110746       7.11736116       0.63010868      -4.33736735       0.97745443       1.17851126
C        2.84719513       5.32160363      30.59170285      -4.10057748       4.95880718      -3.92002020
C        3.12632216       1.65899985       1.87236495      -2.49250616       3.63651748       4.46570346
C        1.03302182      10.01154981      27.71639588       1.13192279      -1.98494202       2.78583652
C        7.15800909       3.00277506       0.41235398       1.93762803       1.08554449       1.47469019
C        1.64400529       7.71401623      31.23914679      -0.67239237      -1.70044885       3.08361688
C        2.86751909       9.24900604       5.28822550      -5.49566543       2.30058975       1.10593879
C        9.43307339       7.49411096       6.22461137       3.55048512       4.92883403       1.21309950
C        0.09833410      10.44328722       2.06227058       1.70170016       2.69909130       0.96256948
C        2.72391901       3.72222073       4.87092752      -6.00370741      -2.53406838       2.07954760
C        6.83857286       0.04051243      25.64342375      -0.97003900       0.77069501      -3.09233364
C        4.02047487       9.76284097      28.72090245      -0.54030960      -0.31748877       1.97684205
C        6.06021028       1.96225595       1.72686138      -2.57059020      -1.95546443       2.23620185
C       10.82735364       1.82195286      29.82228624       2.57104348       0.04690492      -3.77412377
C        4.97510266       9.09700539      27.93972039       0.47166733       1.95522928       0.47880920
C        1.78092104       2.73627146      30.61445147      -0.01590823       3.94292225      -0.26831375
C        4.12462389      11.05673214      29.26952913      -1.48836980       0.37557623      -3.32837947
C        8.89457873       3.15413212      29.53353206      -1.49972671      -1.66454740       1.24793346
C        2.21268103      10.23764259       0.39777234       1.59333966       1.62866746       1.63095300
C        9.65723540       0.77050398      29.08359747       1.13518962       0.39878953      -0.51151760
C        5.69610650       7.51677218      31.18138344       2.22845697       1.75146867      -0.96027678
C        2.81128946       2.30194839       5.21081134      -3.79060296       0.06102913       0.18931390
C        7.63257360       3.51270326      30.48753481       0.22968099      -4.11925905      -1.31738684
C        7.48180368       1.87341765       1.47412325      -2.22893371      -0.31179350      -5.29950452
C        5.40452539       0.48722182      29.07377207       0.00682822      -4.17130648      -0.16135687
C        8.13764664       4.78063621      26.19195656      -4.24595081      -0.57890737      -2.34720228
C        6.13798331       8.88134557      30.81368184      -3.06025496      -0.79019000       2.54605124
C        1.94272236       8.50871702      26.12339778       1.78270010       5.30584803      -0.44956614
C        1.18654677       7.48032454      26.29046091      -0.56397414      -1.32809831       0.45144029
C        8.09426627       5.28502050      29.38646393      -1.50523050       1.10234590       1.88667075
C        5.15756667       2.49307267       4.97540847       2.14041352       1.04444841       0.91170841
C        1.16892138       7.44537862       4.78384442       2.81200363      -4.89428972      -2.71216022
C        9.15487223       3.47383933       4.65060696       0.02612566      -0.64292786       1.83875337
C        6.16753209       5.20338592       0.10864266       3.22899975      -1.31105025      -1.24110414
C        0.74952514       5.01622481       3.91226240       0.87235704       2.91669390       0.86471026
C        8.71175340       8.73447107      30.63066025       0.12574533      -1.44577194       0.15437158
C        0.69094696       3.58081112      27.95289394       1.88914988       1.46315267      -0.54558352
C        5.63656858       6.88675194       6.10464133      -0.81916740       0.06227347      -2.42493945
C        8.11230943       7.96864160       3.20351921       5.95134664      -0.34867711      -1.44899970
C        8.64877170       6.64473872       6.47825694       0.38966325      -0.33636435       2.05995924
C        2.97084385       3.27008032       1.23796939       0.32020623      -3.08972179       1.89076623
C        4.42331838       9.59713293       1.32542799       0.23833598       0.15144535       2.07803793
C        3.18464064       3.15247233      25.06031429       0.15182768      -3.61566006       2.41309536
C        8.59256465       7.76624881      28.27982324       3.38220939       1.39724407       3.33421474
C        0.63035897       8.34724314      29.38990595       6.06953128      -1.69447802       1.74349146
C       10.05880302       7.43674094      28.64570996      -3.10799165      -1.84376212      -0.18334768
C       11.08946501       9.71942673      30.85789615       0.51592889      -1.39733853       5.71682472
C       10.65096423       7.87324318       5.95535154      -0.16486506       4.01529547      -1.00474162
C        7.69824258       1.80304029      27.36515339       1.96134322       6.78374615       3.42608407
C        3.24076865       4.58561651      25.35639058       2.46437540      -0.16717726      -2.40131271
C        8.92112408       2.00919301      28.30194605       0.15512782      -0.80944487       1.22670233
C       11.13596171       7.09377408       4.92199458       1.72960296      -0.12332243       2.94634178
C        3.92451190       2.85193739       2.25743311      -1.15050408       0.52907358      -0.20800318
C        6.91571359       8.61225632       3.10432646      -2.89620679      -0.93099596       1.92237525
C        4.85983192      10.86219795       3.75414852      -0.53089247       1.08312443       1.56901174
C        0.26871665       9.10746094       6.07012726       1.90012845       0.90712912      -0.55595831
C        7.88084209      10.32186283      26.05727970       1.66700692       2.84387741      -2.32980833
C        2.90245372       0.52695517      29.72978977       5.55960422       0.66886704       0.52860859
C        0.59019657       4.36484183       2.38475655      -0.39541861      -1.32206140       0.04517281
C        4.15445495       3.64750759      30.34972885       2.80823279       2.11235991      -2.29292388
C       10.55977739       0.48997685       2.29457563       1.02183711       2.04732613       1.19386153
C        1.34948849       7.08944959      29.01247283      -0.75421853      -1.83429226       1.00214186
C       11.15500978       3.00632046       2.26093771      -0.20116309       0.06249634       3.32512422
C        8.53467524       6.44617361      30.24937832      -1.42340599      -3.08422084      -1.62899576
C        9.36669308       1.63490467       0.26146835       3.43656446      -0.84843834       3.89267671
C        5.81855837       7.77042652       3.03188758      -2.30548127       1.26135690      -0.54520962
C        0.19996520       4.88603854      30.91181070      -3.90755691       0.34592523       1.86897889
C        8.97158396      10.93002352      29.95536724      -0.09594652       1.37483544      -2.91312905
C       10.45305401       0.62897017       0.81334930       0.64739913       3.86690033      -0.98233076
C        4.64638515       5.23402993      25.33126383      -1.24154523       3.22989614      -1.09627560
C        2.72849190      10.77784221       4.95400537      -0.94919818      -0.20706996      -1.59802719
C        3.11337128       8.95313432      29.41083969       0.61245753      -1.38260330      -3.18521814
C        8.46014275      10.32578084       3.20840062      -3.68929265       0.62887811       1.09703695
C        9.03727553       9.16257275       2.71428302      -1.98114370      -1.01641503       3.60789892
C        5.08057273       3.89884725       4.80768823      -0.21087068      -4.45700325       1.56222233
C        7.01819152      10.01702599       3.37299176       1.44324079      -1.68868696       0.31344479
C        2.23560195       4.94458284      26.27472149      -2.52341955       0.96409530       1.55239619
C        1.38111484       0.21887778       5.49311956      -1.63959399      -0.80364860       1.80430221
C        7.48846542       0.47764698       0.66233850       1.33934528      -0.73131455      -1.68799164
C        0.46132006       4.81539019      28.63832526      -1.62671163      -0.50779647       0.42845646
C        9.77038342       8.61509038       1.67410461       5.35453003       1.06708942      -1.03242067
C        5.71755957       7.47693722      26.24023871      -1.67391299       1.19122861       2.61544509
C       10.48979522       3.27178528       5.10539166      -2.91234116      -0.35769946       1.21111894
C       10.68945556       5.83068500       4.57216020       1.03301247      -2.07539415      -5.16693536
C        6.99684007       4.36335140       1.16928545       0.26285899      -1.50763710      -2.79128921
C        1.74953181       9.48804971      29.30294801      -2.65678419      -2.93284695       1.15596035
C        5.41485674       5.33323345       2.84166905      -0.69302315       5.55366030      -3.31741659
C        8.09783425       5.26380454       2.92042872      -0.40624721       3.66184391       4.36466468
C        8.18252872       6.56332996       0.41069556      -0.78402456      -0.45565567       4.32369366
C        9.61338081       6.16338826      26.29590556       4.58074012      -1.25818488       1.50924104
C        2.24771729       2.52414575      26.09648744      -2.12410173       1.58564318       0.36712883
C        1.11535645       1.15506722      27.74255523      -1.03661810       2.58548569      -3.01870487
C        0.41021659       0.99576123       0.44865165       3.68795943      -3.95711784       0.13368155
C        6.56348803      11.08078216      28.33846275      -1.15648492      -1.37081699       0.40790789
C        1.63974855       6.40770487       3.62297627      -0.66348504       0.65882666       0.23500116
C       10.00391703       3.76839000      27.50868562      -1.06923668       5.53902822      -4.61824831
C        5.58106159       3.43933376      28.28257686       0.53463675      -2.91175292      -0.65042029
C       10.19472516       6.45605331       3.00406980       0.03324707       1.02875021       0.32996384
C        1.53804970       4.37909118      31.09060799       0.89764724      -3.62778322      -1.01308426
C        2.34528359       8.75253682       0.76362776      -4.07697652      -0.44153290      -0.74454163
C        4.91146607       1.20121390      24.63847910       2.04240076      -0.55762253      -1.03978886
C        6.21253838      11.11807663       3.73349640       1.10331892      -1.84376655      -0.03693484
C       11.08534376       7.87283670      26.79052382       4.64553317       2.14406726      -3.99428586
C       11.05428197       9.14382954      27.48412212      -0.90584092       3.32328703       0.70647935
C        6.56399613       5.28688353       3.64028025       5.59938062      -2.66289346       0.11205722
C        9.33902991       4.51364710      28.91378073      -1.52583323      -3.64380280       0.92393752
C        5.36977142       6.44766403      25.48005297      -1.90201154      -2.54256139      -1.06276479
C        2.49211293       5.66310264       1.53607961       2.48345926       1.09540625      -2.17126958
C        1.01318338       7.27505253       2.46849151      -1.72793752       2.96715243      -3.00278179
C        0.19079684       2.19541696      28.31073884       0.00547809       3.16223560      -0.46246388
C        7.03045364       0.92371278       4.10151091      -0.84494569      -1.34430398       0.57947258
C        9.92622304      10.25768428      27.29449811      -1.57096486      -2.12581698       0.38362383
C        1.45218096      11.20962479       1.31241090      -4.69292327       2.87860741       0.71295901
C        4.01307921       2.05119586      24.63994978      -1.35079537       3.96770106       0.08631548
C        5.29231454       0.80232227       1.35452870       8.14428576       0.39080299       0.70254240
C        5.67894404       6.73323828       2.03004075       0.47085480      -1.71040644      -2.08927417
C        0.62813463      11.27523731      28.27440989      -1.04283412      -0.50249491       1.34730326
C       10.44258717       0.02309028      28.18914167       0.59664333      -1.04234261      -2.03988055
C        6.04487698       0.49089143      24.44813540       1.45466189      -1.56691478       5.52217021
C        1.94929378       4.31328671       1.30718528      -2.22897257       0.40760750       2.04286364
C        4.55314333       9.70543707       2.92947185      -1.50637228       0.93972047      -1.87295578
C        8.87878249       2.10042502       1.76531813       0.73887651       1.81045792      -0.59241651
C        7.93311983       7.59805674      29.64802616       1.19121143       7.53655228      -2.21218816
C        4.09226362       8.79910127       5.09540980       4.14319123      -4.69028120      -0.22071280
C        7.77493166      10.18298243      29.06059852       0.44762649       4.82293781       3.54324358
C        4.13008877       5.53141466       3.51577300      -3.28726585      -3.60775927       0.80337207
C        8.31789760       5.28176866       1.42255553      -1.40092017      -1.06929147      -1.01502204
C        3.15342078       2.79930961      31.06673288       1.57808246      -2.48373571      -0.87171680
C        1.33257444      10.44242909      30.48080722      -1.46584794      -2.74036442      -3.41693875
