64
Lattice="7.527393 0.0 0.0 0.0 7.527393 0.0 0.0 0.0 22.527393" Properties=species:S:1:pos:R:3:force:R:3 energy=-418.93109556 config_type=Amorphous_Surfaces kpoints="5 5 1" kpoints_density="5.99123926 5.99123926 3.58602245" virial="-12.51710225 15.61335434 8.76415309 15.61335434 -9.20465581 -0.01254628 8.76415309 -0.01254628 17.32557367" cutoff=-1.0 nneightol=1.2 pbc="T T T"
C        3.75315815       1.44065269      19.50845201       1.36779871      -1.32014879       0.90008671
C        5.66186414       0.41507550       2.27591999       1.25873044       1.04344132      -0.48093710
C        2.89782801       3.30411152       1.06074735       0.22891861      -0.42708505      -0.31909599
C        5.72430386       4.40141723      21.88592548      -2.88184438      -1.54700368       0.58644580
C        1.47642286       2.12033864      20.51443527       1.75340200      -1.39732622      -1.08269560
C        3.05968954       1.98332504      20.70616591      -0.60134150       1.55431389      -1.12853801
C        7.31689698       2.84494807      22.39693687       2.11381110      -1.08351298      -1.76246390
C        0.00925117       5.06850233       2.85316191       2.04764087      -0.35025945      -2.10248997
C        2.77927910       4.81732075      20.29292342       1.17711346       0.70401457      -1.68923340
C        6.75316299       1.29423737       2.61930504       1.79826345       1.73462142       4.21869597
C        2.42508515       6.56846335       3.68958148      -0.51367823      -0.68879502      -0.77692180
C        4.82727197       5.47897860      22.42187469       1.26190870      -0.66774397       1.62052492
C        2.07935951       5.59633065       1.82780509       1.83045158       0.71359863      -1.19276081
C        6.05174546       1.43922249      20.22653519       1.41038490      -2.26242306      -1.15296149
C        7.17252158       4.08672704      21.57238923       1.05100183       0.50770077      -0.48159292
C        2.10726356       4.23314989      19.00462686      -2.55830341      -2.14960582       2.10742183
C        6.99316639       5.06778723      19.22273708      -4.31268828       0.66943784      -0.28858223
C        1.87759527       5.51054848      21.21206358      -2.28771012      -0.33236243       0.89174751
C        3.52483727       5.99761598      19.55125406       1.37012403       0.97644690       2.88546716
C        3.76934204       2.04337858       3.20913977       2.26095452       1.41178635       0.26606909
C        5.17603867       3.67415816      19.60682913       2.61169827      -2.83237978      -1.21317857
C        3.26499166       3.56002783      21.11055514       0.89302254      -1.41759380       0.18651367
C        5.60549149       4.92696476      19.08928481       2.19011640       0.25556758       0.81037465
C        5.18316711       7.21187480       3.38377212      -2.04903481      -6.54121376       1.75746337
C        1.01153107       5.68359572       0.81438778      -0.12118041      -2.06891234       0.55116956
C        1.17053219       3.42617573      19.74084460       1.16471356      -0.93786532      -0.08719565
C        1.06998881       0.96105237       0.52349156       0.06726879       0.47580702       0.38141732
C        6.63891975       7.20853263       1.29442400      -0.72246833      -4.15528892       1.75605382
C        1.49716083       5.36549562       3.18764864       0.78035015       0.73563478       1.14260478
C        6.41136666       2.66452399      19.46760985      -3.07523482       2.61949583       1.12202395
C        3.98361681       1.50603563      22.01234921      -0.26498586       0.03438730       1.42028622
C        3.54641830       0.23011993       1.43197626       0.09394953       0.31852417       0.88871382
C        2.13127594       3.41881393      22.37107542      -1.21582848       0.41465820       0.19856547
C        2.52878251       7.13448567       2.21189714      -0.42257692      -1.51252978       0.83549319
C        4.70495183       5.92663266       3.63986352       0.85506040       6.07316897      -0.51631927
C        7.18049309       0.42338575       0.19948007       0.01220888       1.75158907       0.00800765
C        3.17066590       3.79921827       2.95354397      -1.59893949       1.64468576       0.76482122
C        1.07808828       4.73877993      22.19067606       1.19228920      -0.34032896      -0.25454490
C        4.83865338       3.39566720      21.01229066      -0.02011078       1.72402055       1.50139226
C        0.05918789       7.28893272      21.44215837      -0.96270728       1.28705922      -2.74028330
C        4.43845201       6.65606715      21.81913176      -1.18851195       0.02343903       4.01671885
C        6.79036337       3.39754152       1.06933029      -1.94147730      -0.59927296       3.24497970
C        3.23658328       4.56863074       1.72956312       0.64392495       2.22017844       0.09400345
C        4.86435943       0.51282623      19.69970958      -2.27802801       3.08235785       1.26702484
C        6.95761451       2.58282920       3.10695552       1.59311534      -0.10896503      -1.27952030
C        4.14291903       2.44911259       0.83520310      -0.37280291       0.92059034      -0.22868126
C        0.92428859       0.90002780      19.50092786       1.05061183       0.43278555       1.83841808
C        4.36697941       6.90261185      20.50418531      -0.54155005       0.09763237      -7.71103298
C        1.15881957       2.20062582      22.16226901       0.43021654       1.54625113      -0.21090949
C        1.26040174       6.66822389      20.87667575       0.98075022      -1.27638995       1.14653639
C        0.57252598       1.07957870       3.03707554       0.25997273      -1.08573582      -2.79407098
C        4.24971768       1.41446489       1.95675188       0.00490336      -1.15861588      -0.43058343
C        4.62102140       4.89918115       1.20199411      -1.31948104       0.92078559      -1.85573024
C        5.32993622       3.64836178       0.87958206       0.40009605       0.00439944      -1.50097448
C        4.25826880       3.28301977       3.57072695      -1.04129209      -2.86787675       1.21889051
C        7.41450469       6.06222359       1.64968099      -2.58320437       1.59180407      -0.45483690
C        5.34715136       1.82735745      21.53938660      -1.77768030       2.96717623      -1.61527580
C        7.30461228       0.65393474      20.37025996      -1.33345050      -0.77901768       0.50720426
C        1.72381816       7.23919170      19.71939852       1.06781936       1.77656117      -1.90366419
C        7.35983323       3.86420225      20.08643733       0.61607857      -1.19477019      -3.25064531
C        6.35918677       1.77315270       0.01034007       2.13802549      -2.15770580      -1.35181298
C        7.41840388       3.67475282       2.31574842      -1.79178932       1.33362624       3.47090196
C        3.83324961       0.15805267       0.10105788       0.52554069      -0.12421247      -2.44368303
C        1.48698380       0.67659219       1.92543881      -0.72433613      -0.18260592       0.69517830
