32
Lattice="10.44438448 0.0 -1.27419622 0.0 3.50311626 0.0 -0.09739693 0.0 5.24673629" Properties=species:S:1:pos:R:3:force:R:3 energy=-223.65320706 config_type=Crystalline_RSS kpoints="3 3 3" kpoints_density="5.02474796 1.6729304 2.5060364" virial="33.28394433 4.53018977 2.5404176 4.53018977 22.24810415 4.78028933 2.5404176 4.78028933 30.52334342" cutoff=-1.0 nneightol=1.2 pbc="T T T"
C        3.92126313       2.86113167       1.44103915       4.64079427       0.96588464       1.62340712
C        6.91860236       3.37661681       1.14024227       1.09408499       2.72905500      -5.53344723
C        9.70400197       0.35902146       3.24114852      -5.25091510       8.01673026       4.36558576
C        0.85910845       2.25890591       4.43793209      -6.79690463      -7.98995135     -10.93235543
C        9.86167270       2.10714167      -0.37729218      -4.70126234      -4.56672447       1.96761966
C        0.23615905       0.16240594       2.58877984      -5.72913760      -3.96946572      -1.29309205
C        8.11462494       0.46306149       0.05070052       2.13477100      -1.82571944       1.80704356
C        1.22754706       0.36574100       0.58612028      -2.59295314       2.61750080       2.90295426
C        9.07524521       1.65884749       2.39663485      -0.33042101      -0.91070939      -3.10145100
C        7.99122100       2.23919352       3.21360827      -3.87204641      -2.12540061       2.05171635
C       10.06079872       2.84443978       2.50123632       6.29291095      -2.14442235      -6.67153734
C        0.18110472       1.39813006       5.20262978      -2.04431883     -12.30377835       2.71290807
C        1.30681132       0.91439801       3.07141611       7.19072243       5.58406870       0.30654258
C        8.94467734       3.00497467      -1.02606274      -3.54473512       4.10349128       1.02041981
C        9.25182284       1.15324808       0.91949750       0.74685155      -0.16225029      -2.61160227
C        1.77079479       2.97488406       4.90157632      12.50367746       6.75430295       3.31898613
C        5.90796517       1.02355550       0.93158909      -2.92933857       4.15307008      -0.20688447
C        1.84788854       1.75803424       1.65320344      -5.20718076      -5.29035643       0.31514139
C        4.24973716       2.21584130       3.93587446       3.33386733      -7.16979307       1.63375016
C        6.04856462       0.14529616       3.53224961       2.48530279       7.31535724       4.57694334
C        4.59617293       0.26290141       0.30703411      -0.18219993       5.61401680       5.27981596
C        5.42176268       2.01469919       2.04050959      -0.32796673      -6.57094018      -1.74378295
C        2.92474543       2.15845724       0.68930743      -2.06118304      -2.47595557      -0.34799071
C        6.31537644       2.20489462       0.01789193       5.36517366      -4.49410036       3.05601219
C        3.75123689       3.16040128       3.04112704      -3.21732514       4.33647361      -3.83959344
C        2.54499695       0.24947597       3.86886388       0.06037643       2.19872853      -0.61804684
C        5.05025453       1.00823704       3.10028131      -4.98895764       5.35264520      -1.49786694
C        5.39908722       3.07588979      -0.55046602      -0.19613356      -7.34351573      -5.70393099
C        6.79820941       3.02622370       2.52539761       0.63306870      -5.91010694       0.07683212
C        3.58745432       1.18771195      -0.36234550      -1.20633222       2.62664530      -0.57958543
C        0.46438086       2.67776371       1.37946900      11.48623051      10.46185460       7.97235009
C        7.24566142       1.27636675       4.31592094      -2.78852030       2.42336524      -0.30686148
