16
Lattice="4.9398181 0.0 0.0 0.0 4.9398181 0.0 0.0 0.0 4.19112238" Properties=species:S:1:pos:R:3:force:R:3 energy=-111.47693734 config_type=Crystalline_RSS kpoints="3 3 3" kpoints_density="2.35903443 2.35903443 2.00149111" virial="33.49067835 -1.09000557 -9.18185212 -1.09000557 6.09208647 3.19038094 -9.18185212 3.19038094 9.34605082" cutoff=-1.0 nneightol=1.2 pbc="T T T"
C        4.19550098       1.79113961       2.82033534      -0.79474722      -2.09772205       0.03819523
C        3.33814556       4.25851122       2.98336174      -0.29665802      -1.41996522      -4.97264965
C        1.89661599       4.11894165       3.36670011      -5.07311206       0.25787399       2.11225363
C        1.88328920       0.93269941       1.33307063     -14.49476341      -1.94836622       5.56017705
C        3.21047971       4.11013193       1.43544160      -2.32477482       4.88267383      -3.16207817
C        0.63791927       3.23380208       1.29244218       4.07338774       2.41828254      -0.17635532
C        1.67310276       0.74084344       2.93972922       2.74675444      -1.24484056      -3.58699938
C        3.02372940       0.79319573       0.89662148      17.28246569      -1.25293463      -7.69211825
C        1.72870703       4.15188466       0.66151334       0.05431588       0.35594832       4.47371036
C        0.84704019       1.79150466       0.83874112      -2.48075692       1.38211904      -3.21692435
C        4.32294750       1.87622936       1.21151664      -4.90449229      -4.47386128       3.26676416
C        4.42708968       3.16854476       3.27226939     -17.92757579       5.79744158       9.13373657
C        0.78579238       1.75517408       3.45680475      -1.24123572      -2.97824477       0.12946404
C        3.10672703       0.79626444       3.32941412       3.23446421       0.96418152       4.07901533
C        4.16057983       3.33877598       0.72783354       4.13739470      -4.50821309       0.39895285
C        0.65643637       3.10004302       2.90410954      18.00933359       3.86562699      -6.38514412
