64
Lattice="7.527393 0.0 0.0 0.0 7.527393 0.0 0.0 0.0 22.527393" Properties=species:S:1:pos:R:3:force:R:3 energy=-452.08680468 config_type=Amorphous_Surfaces kpoints="5 5 1" kpoints_density="5.99123926 5.99123926 3.58602245" virial="-35.28163907 7.76164117 5.72246874 7.76164117 20.55359272 -10.12366008 5.72246874 -10.12366008 -1.31377616" cutoff=-1.0 nneightol=1.2 pbc="T T T"
C        5.65335818       0.33691858       1.98092378       0.91951532      -0.03849470      -4.45022834
C        0.58368911       6.28256544       3.50852882       1.91778265       1.71842191      -0.09436654
C        1.34581507       6.51513177      18.47886004      -0.04158237      -2.36675073       1.17919603
C        5.65396038       7.02378030       0.68307561      -1.77359741      -0.16856746       3.36852835
C        6.74248915       7.42802389      22.35280570       4.50336319       1.15010420       0.76960715
C        6.95632733       1.96610236      20.34588532       0.05024050      -1.82423706       1.14513796
C        1.32523517       0.34482235      18.97966651      -0.98744348      -1.09065698      -0.36011969
C        0.45860642       2.72204080      20.96324852       0.63391016       1.50765279       4.07024968
C        6.53350614       7.33258407      19.39466615       0.29722719       2.51204149      -0.24262543
C        3.68709022       5.88894300       2.65672304      -0.26469321       0.47951410       0.33291393
C        6.49703592       1.55030423       1.35346830      -2.98710910      -0.74327381       1.06000215
C        1.39601525       3.27728389      20.13214541       2.10998802      -0.61576805       0.62446450
C        4.05895096       2.86838085       2.59297052      -2.78042856      -0.95389270       1.90475301
C        3.75851765       6.37173493      21.67443832      -0.11702975      -0.06649854      -1.23889711
C        3.64286679       3.88951687      19.68583270       0.19149800       0.54096150       0.50333433
C        1.12915411       5.94021960      21.66851361      -1.57755822       0.34197497      -0.38734717
C        2.89705269       2.32463209       3.04784364       2.29765090       1.13366688      -1.42819174
C        7.33491756       6.15887532      21.74213313      -0.11401957      -0.67178350       1.76786380
C        0.03052358       0.81177664      19.28000172      -1.47857560       0.43818596       1.77710864
C        0.42751076       5.43896298      18.91706289       0.39082200       1.61031810       0.60280859
C        1.45240295       0.94464266       1.35648697       0.26242837       0.79886125      -1.47086007
C        0.33097947       4.55177691       1.86817417       4.84857743       4.53055667       0.29083351
C        2.80458619       2.90998475      20.49958972       2.69727896      -1.49038352      -1.88955720
C        2.81214370       4.61419405      18.89820746      -2.76076532       2.05156114       1.03412953
C        1.63384323       1.81889666       2.58636999      -0.43361230      -0.59674232       1.40965745
C        5.59004528       5.41647865      20.29019760      -2.28121450      -1.59303039      -4.55576479
C        5.95860902       5.36409553      21.61836764       2.84239323      -0.47571866       4.21302472
C        2.51521062       4.82431370       0.78807579       2.00908176       0.28980556      -1.29425829
C        3.32135678       1.61749374      19.85363925       2.51406171       3.25044023       1.78539730
C        6.79735632       2.78429987       2.14589188      -3.08653348      -0.26372595      -2.47680608
C        5.59686510       3.61776293       2.64140441      -1.79028961      -2.05765646      -2.16835856
C        3.58994169       6.99571065      19.03156963      -1.76352425      -3.67855682       0.77778368
C        4.50616091       6.55510223      20.27091415      -1.95927741      -0.39775900      -0.61401348
C        6.20056202       1.01702607      21.49178622      -0.57913240      -0.38675924      -1.06603910
C        5.67265089       1.94715591       0.03471471      -0.82928119      -0.09583607       0.44135737
C        2.12429805       5.92197320       2.91166555       0.90924487      -0.62138787      -1.44293119
C        4.49190403       3.66849756       1.49068265       1.42590914       0.67604703      -0.84129623
C        2.16826555       3.49862688       0.16825710       3.01592835       0.98332723      -1.85377081
C        4.92104070       5.81710909       0.13565996      -0.36084299       2.06116928       0.42394487
C        2.72561631       6.00653594      18.55892239       0.89227309       0.26076258      -0.54171875
C        0.41373563       1.28192256       3.62082788       0.62968921      -1.26816810       0.04300386
C        2.63872762       0.68405184       0.51849048      -2.53797418      -0.00391291       1.96762042
C        4.80420051       1.56967221      19.88893968      -3.43601188      -0.84896653      -0.47091468
C        3.32405911       3.13835080      21.94395605      -1.37554536      -2.22692973       0.05260240
C        2.38388020       5.69763431      21.97360210      -0.59894943      -0.59373367       0.95374358
C        4.63865055       2.89617951       0.11743530      -0.90769576       0.49037666       0.97169507
C        7.34745067       7.47040311       3.57088465      -0.08290823       0.68211085       1.49766383
C        5.91863857       4.94580582       3.08037319       0.71290609       1.73958395       2.06151799
C        7.38349183       3.61500038       1.00233382       1.99136050      -0.24328822      -0.51148151
C        0.11257216       0.74344297       0.92166323       1.53789006       0.10464373      -1.12531557
C        0.82579265       3.18556261      22.30238940      -2.82517748      -0.22274715       1.17336859
C        7.33101084       5.29379720       2.99211087      -2.76252640      -4.99705710      -1.54029061
C        6.69454718       6.00074737      19.48506858       2.55659323      -2.97027269      -2.77575684
C        5.32613488       0.20262236      20.17253703       3.17661662       4.56089865       1.28616267
C        2.71418973       0.57668111      19.32025817      -0.58516875       0.40146559      -1.11534679
C        5.66606442       2.63065825      20.01694032      -1.71234899       2.21100683      -1.11778025
C        5.87777988       7.28530451       3.21299195      -0.37201091      -0.17236725       1.06188966
C        1.68253041       5.08787784       1.85887036      -2.27014960       1.37368939       0.95638711
C        1.36765203       4.33589881      19.33737899      -0.21544733       1.08700600      -3.40676832
C        3.97571305       5.13388527       1.33247277      -1.31074601      -2.61054898      -0.80363247
C        5.07185202       6.04382664       3.29870868      -0.87168150       0.19510695      -0.30389294
C        3.21070410       0.02426832      22.19198265       0.02718233       1.52162927       0.80450288
C        5.01119629       4.02547665      20.01932823       2.28431660      -2.09199779      -1.59799996
C        0.24899863       2.50724664       3.14236858       2.18512303      -2.25542079       0.87407588
