64
Lattice="7.527393 0.0 0.0 0.0 7.527393 0.0 0.0 0.0 22.527393" Properties=species:S:1:pos:R:3:force:R:3 energy=-443.5134902 config_type=Amorphous_Surfaces kpoints="5 5 1" kpoints_density="5.99123926 5.99123926 3.58602245" virial="-41.6322972 2.41639125 -8.28658866 2.41639125 64.84591964 -0.61408288 -8.28658866 -0.61408288 16.61476033" cutoff=-1.0 nneightol=1.2 pbc="T T T"
C        4.94996847       0.75949890      20.57262353      -0.82466015       0.15925256       0.53711345
C        0.58217610       7.23649690      22.47812559       0.76088097       0.63143977      -2.11738679
C        1.44133016       6.45011768       0.94651094       0.48293088       1.03089266       2.27112465
C        5.60741850       7.17545727      19.87112051      -3.17148535      -0.71660957      -0.40850059
C        6.95266149       7.07498915      20.31153104       1.73556253      -0.16813371       1.39593675
C        6.71979406       2.66394438       3.84891773      -0.12230796       1.93931049      -2.17122100
C        1.92207464       6.91152429       2.58456780      -1.37877303       0.56019798      -3.81457348
C        7.06314856       3.98356412       3.39145396      -1.72881635      -0.09223359       0.31390087
C        6.11855107       7.23676036       1.56905545       2.16823790       1.43211624       2.83129741
C        4.08674210       5.11901866      21.12449960       3.84811233      -1.78694418      -2.31988840
C        7.20902944       1.83060176      19.88206882      -0.52910232       1.16905301      -0.79279758
C        0.80698922       4.64763826       3.40711050       1.78123530       0.28181148       2.59030157
C        4.20085738       2.68465224      22.18792771      -1.18244205      -2.75682900       2.44021685
C        3.43057925       6.83814726       2.36078068      -0.93234454      -2.37528535       1.10564059
C        3.26410343       4.26698552       2.70977505      -0.70023589      -0.26026508      -0.66672300
C        0.98170754       5.37467904      18.68998677       0.67546791       0.11789191      -1.31084430
C        3.06413070       1.83377832       0.02788891      -1.14982057       0.24446986      -0.12032287
C        7.27927507       5.36684302      18.54637464      -0.34251127      -0.29846302      -0.57871655
C        7.29993777       1.85128703       1.10192743       4.83339374      -3.34496567       0.05756352
C        0.33476575       5.55842270       1.35986608       1.11933382       1.32871656      -0.34451028
C        1.32231455       0.46276907      21.33012964      -1.24885035       0.33168676       1.27251414
C        0.50503538       4.97680363      21.42341558       1.30674039       1.72508810      -0.57456082
C        2.19699761       4.42580599       3.58241867       0.98724792      -0.83929228       0.02356827
C        2.53881653       4.23562640       1.42071257       1.16498493       1.36168152      -1.55237590
C        1.09880367       2.34560341       1.33866780       0.97763322      -1.62671424      -0.51115142
C        6.02249401       4.89328720       2.60132818       0.92972303      -0.29845809       3.07046112
C        5.84596159       5.23337482      18.55430428      -0.48213479      -1.64543419       0.74036484
C        2.19208223       4.94424013      19.44375334       0.83848865      -1.17048193       0.69395267
C        2.47571439       1.72171049       1.41095821      -2.55048537      -0.78916632      -0.88111964
C        6.10931496       3.88860606      21.44058145       0.26491374      -0.73673315       0.82373333
C        4.65689695       3.59816160      21.37809046       0.61325645       5.86002515      -1.63332473
C        4.06626759       6.06865951       1.37430614       0.92268567      -0.92660881      -2.61180586
C        4.02383567       0.35606074       2.91060676       2.87234950       3.28638271       2.14092867
C        5.98041588       1.92921061       3.09364183       0.21953883      -1.73726100       1.98484514
C        5.66945175       1.83331915      19.85242277       2.92358207       1.99568290      -1.16419499
C        2.92890109       5.54829083      21.71365851      -2.72669955      -1.40163051       0.15857638
C        4.85533409       4.15293799      18.85520267       0.57340415       0.12823328       0.15790676
C        2.11005622       3.36918583      19.63555156      -1.77335068      -1.72909419      -0.64352448
C        4.95598286       6.16972982      19.16418839       2.46892677       1.80984014      -1.28559873
C        2.84581372       5.57801651       0.66633776      -2.57563142      -0.74707831      -1.70712803
C        6.57948345       3.79167582       0.24111069       1.15368400       1.76671885      -1.75400905
C        2.54355126       1.14892858      21.42958808      -0.21901596      -1.06103292       1.85911633
C        5.25426333       1.92539422       0.17643454      -1.13185818      -0.00406447       2.22660239
C        3.24136317       2.43606009      19.59090227       1.31835586      -0.41824531       0.76112080
C        0.66092769       6.01667533       2.96296042       0.31259328      -0.31301421      -0.16566238
C        4.65764969       2.84994626      19.39185022       1.83610563       1.02283731      -1.50730476
C        6.94227369       0.51159927       0.46838956       1.26279322       0.53668660       4.02651562
C        5.66004251       6.01934756      21.84443003       0.58378181      -2.94228947       1.11962497
C        7.40509545       3.94571639      20.62089973      -2.16951941       0.81329678       1.66203244
C        0.24302188       0.64789777      20.40891696       0.07836642       0.12760687      -1.57995040
C        0.61703546       3.02979074      19.91299893      -0.51307005      -0.81636484       0.20890044
C        7.19214550       6.26318993      21.56675738      -0.76539998      -0.87248077      -3.31663335
C        6.79624226       6.09548714       2.27303648       1.97200032       0.56943516      -2.53293086
C        5.40317775       0.73988251       2.74807162      -2.15687846      -1.67783593      -1.77210068
C        2.70627844       0.65113455       2.32818354      -1.60884564       3.07558173       1.08926300
C        6.26022413       2.63810284       0.92855661      -3.49958727       0.21240639      -2.38768093
C        5.36960558       0.53070379      22.26603019       1.45105739       4.65875292      -1.12386121
C        1.83721834       5.26864818      20.84799838       2.07703297       1.14853508       3.13918580
C        0.35581234       4.49983037       0.32984609      -0.47691532      -2.29931222       2.16485140
C        3.93775241       5.18139064      19.54152222      -1.82644198       0.15511016      -0.20198493
C        5.22303218       6.79095051       0.50941194      -3.89085952      -2.56379861       1.08039186
C        3.50363260       1.25876077      20.37073303      -1.82404608      -0.06891084      -1.30162311
C        4.71134259       4.92714542       2.23575365      -2.91870978      -1.01194423       1.66699466
C        1.37749034       3.65302877       1.01422829      -0.09360234       0.01623506      -0.76053556
