64
Lattice="7.527393 0.0 0.0 0.0 7.527393 0.0 0.0 0.0 22.527393" Properties=species:S:1:pos:R:3:force:R:3 energy=-424.05924224 config_type=Amorphous_Surfaces kpoints="5 5 1" kpoints_density="5.99123926 5.99123926 3.58602245" virial="49.52286238 -15.44913597 9.12970315 -15.44913597 18.48935909 2.00852995 9.12970315 2.00852995 0.96322215" cutoff=-1.0 nneightol=1.2 pbc="T T T"
C        3.14725571       7.23527746      21.93176873       1.14261740       0.02136446       3.19067686
C        4.07571447       7.04783032       0.58235564       0.23568561       2.86318736      -0.89911358
C        2.02896362       0.64325337      21.92122591       2.54145791      -0.10689684       3.12344629
C        6.31451922       5.70959534       2.18053901      -0.35977317      -0.19039098      -1.44939075
C        5.76294950       1.53503114      20.61204646       0.73259008       0.65358116      -0.19989113
C        5.25390955       0.54570588       0.28925173       2.05039166      -1.39527817       0.97098853
C        1.82591219       3.49997429       1.62030527       2.76327682       5.34505917       0.34982911
C        3.97030838       7.38336386      20.46082008       3.43041596       1.60764218      -0.59562575
C        4.10343786       4.19792169       2.45686001      -1.25682653      -0.39877534       3.11040188
C        5.11055787       5.23936662      19.47161972       1.63615378      -0.46725693       1.27609059
C        6.38539715       3.09475967      19.35323827      -1.61922710       5.12011868      -0.24279002
C        2.48283531       6.06031916       2.10732498      -2.50292611      -2.28274937      -1.09536906
C        6.76156356       1.96318173      19.48279331       0.55293241      -4.27267236       2.01597861
C        1.70856014       0.50250617      20.58882072      -3.55462775       2.20213787      -5.08233290
C        2.40251802       1.83441815       0.14162972       1.28853278       0.79414956      -1.14490609
C        0.97693517       6.00859844      19.55314636      -7.36642870       2.72513603       0.42846481
C        7.49868352       5.27952527       2.69215863       0.18763328      -0.14269238      -1.59669406
C        6.96672266       0.76320238       0.84083494       1.57803525       4.35423424       5.90947480
C        3.15420349       2.81158667      20.49778753       3.42855743      -1.70746479       3.92676780
C        4.75107217       5.64864604       0.78311976       0.11139769       2.72636496      -2.72836666
C        6.50594835       0.93730345       3.42472692       1.19982660      -0.20000954      -2.79639143
C        6.35877276       4.45181313      19.89626108      -0.30964580      -2.00079074      -2.50879127
C        1.35141545       1.61691413       2.67677242      -4.05917506      -2.33608595      -1.57424271
C        0.03006441       0.74597217       2.30207429      -2.68183078       0.30121963       3.14406652
C        4.42142505       3.18258929       0.25422163       2.27463426       1.61702449      -3.05172824
C        2.68950741       5.99730735      21.46495609       0.19556151      -7.19377021       0.44817263
C        7.51936880       3.26814564      22.10076923       2.57429258       0.34414914       3.43666925
C        2.72634647       7.13206937      19.87718038      -1.24050487      -0.90643019      -1.33292878
C        2.24454815       5.96900435      19.14476978       0.92722095      -0.14487899      -0.06351113
C        0.76197541       5.83594263       0.40166342      -0.92150409      -0.30599794      -0.06891598
C        3.69006354       4.02218718      19.88299245      -1.75239553       2.89119470       0.40949515
C        6.97827721       5.48296059      22.13327626       2.85005909       0.53955191      -3.33052016
C        6.22936935       5.92859731       0.66881577      -3.07880040       3.99695898       3.55632185
C        2.79932455       4.73403768       1.85677531       0.56299530      -1.89265861       3.45418992
C        1.26399983       3.85059272       0.19373558      -2.89486730      -1.97798313      -1.95697145
C        3.90261454       5.10001952      20.93078655       0.89927897      -1.56188826       4.74782031
C        3.30913982       7.30266268       2.03679171      -0.65865086       0.44206041      -0.07419669
C        4.31778790       3.01143143       3.43544996      -0.97434911       0.71172940      -0.11368994
C        1.36342164       3.68124896      19.60135498      -1.72703465       1.44223528      -0.56816160
C        6.74597433       2.29815072       0.60950115       0.31943154      -0.13852545      -4.18714497
C        4.58752450       4.62704331      22.22649461      -1.61516008      -1.10881182       0.18284749
C        1.02509543       3.03937311       2.80463790      -1.58412660       1.79794197      -0.01980042
C        7.08844813       6.77954651      21.28038916      -0.91994436       0.57268792      -1.67674174
C        6.81819967       4.34552634      21.31677090       0.51545893      -2.45676995       2.20692675
C        5.05517132       0.71315274       3.36640350       1.85718718       1.11515826       1.06902777
C        4.61884598       7.20891653       2.63692146      -2.17807908      -5.20104330       1.42381015
C        6.24142071       3.07666381       1.92848001       0.01637759      -0.33595417      -1.41120052
C        4.84259021       5.48754477       2.31230173       3.93733105       2.18635980       0.24973134
C        5.05439600       6.40442640      20.29062562      -0.73733877      -1.21249406      -0.59038371
C        4.94042374       0.73151205      19.92629009      -1.39789817       0.79908806       1.44744814
C        2.35133175       2.18313215       1.55517858       0.99907363      -3.60099508      -3.34227799
C        5.61570616       1.81304788      22.17389315      -1.66424693       2.51490423      -1.31575061
C        1.85937145       2.47291420      20.16176893      -1.09825717      -1.39084460      -1.17571327
C        6.59562971       7.30147335      22.49990958      -3.76459595       1.15233179       1.12767186
C        0.47579898       7.24604163      20.22797694      -0.58821853      -3.35581695       1.48925904
C        3.87519977       1.67580845       3.57072695       2.06675852       1.17210537      -1.63163337
C        0.31336537       4.77102729      19.74879677      -0.78303398      -1.44806425      -0.70503187
C        2.39971783       4.54078692      19.40827269       5.63964646       1.21816450      -3.29492846
C        4.84794219       3.21828419       1.68770723       1.74502465       0.62216442      -0.71003701
C        1.61244285       5.18919655      22.14086799       7.34439681       0.44198112      -3.61714285
C        2.75229339       1.21054781       2.60968584       1.66582066      -0.70899480       0.63753144
C        3.43450855       2.60326607      21.95808072      -4.25388442      -1.99336773      -1.10804742
C        1.05494907       5.95290326       1.71708295      -1.55362888       0.80000310       3.72689257
C        7.36268611       3.82817615       2.73360903      -0.17307360      -2.65563725       0.20036211
